<?xml version="1.0" encoding="UTF-8"?>

<!-- generated on Wed Mar  4 14:32:15 2020 by Eclipse SUMO netedit Version v1_1_0+0000-2147d155b1
<configuration xmlns:xsi="http://www.w3.org/2001/XMLSchema-instance" xsi:noNamespaceSchemaLocation="http://sumo.dlr.de/xsd/netconvertConfiguration.xsd">

    <input>
        <sumo-net-file value="constructionV4.net.xml"/>
    </input>

    <output>
        <output-file value="constructionV4.net.xml"/>
    </output>

    <processing>
        <geometry.max-grade.fix value="false"/>
        <offset.disable-normalization value="true"/>
        <lefthand value="false"/>
    </processing>

    <junctions>
        <no-turnarounds value="true"/>
        <junctions.corner-detail value="5"/>
        <junctions.limit-turn-speed value="5.5"/>
        <rectangular-lane-cut value="false"/>
    </junctions>

    <pedestrian>
        <walkingareas value="false"/>
    </pedestrian>

</configuration>
-->

<net version="1.1" junctionCornerDetail="5" limitTurnSpeed="5.50" xmlns:xsi="http://www.w3.org/2001/XMLSchema-instance" xsi:noNamespaceSchemaLocation="http://sumo.dlr.de/xsd/net_file.xsd">

    <location netOffset="0.00,0.00" convBoundary="-492.14,-228.91,844.61,48.95" origBoundary="-10000000000.00,-10000000000.00,10000000000.00,10000000000.00" projParameter="!"/>

    <edge id=":gneJ10_0" function="internal">
        <lane id=":gneJ10_0_0" index="0" speed="3.91" length="2.54" shape="829.00,34.29 829.69,34.19 830.18,33.89 830.48,33.40 830.59,32.71"/>
    </edge>
    <edge id=":gneJ10_1" function="internal">
        <lane id=":gneJ10_1_0" index="0" speed="6.08" length="7.62" shape="829.03,37.49 831.09,37.18 832.57,36.29 833.47,34.81 833.79,32.75"/>
    </edge>
    <edge id=":gneJ10_2" function="internal">
        <lane id=":gneJ10_2_0" index="0" speed="7.66" length="12.70" shape="829.06,40.69 832.49,40.17 834.96,38.68 836.46,36.22 836.99,32.80"/>
    </edge>
    <edge id=":gneJ10_3" function="internal">
        <lane id=":gneJ10_3_0" index="0" speed="8.96" length="17.78" shape="829.09,43.89 833.89,43.17 837.35,41.08 839.44,37.64 840.19,32.84"/>
    </edge>
    <edge id=":gneJ12_0" function="internal">
        <lane id=":gneJ12_0_0" index="0" speed="3.90" length="2.58" shape="-399.05,41.02 -398.36,40.93 -397.85,40.63 -397.55,40.13 -397.45,39.43"/>
    </edge>
    <edge id=":gneJ12_1" function="internal">
        <lane id=":gneJ12_1_0" index="0" speed="6.08" length="7.73" shape="-399.06,44.22 -396.96,43.93 -395.46,43.04 -394.56,41.54 -394.25,39.44"/>
    </edge>
    <edge id=":gneJ12_2" function="internal">
        <lane id=":gneJ12_2_0" index="0" speed="7.66" length="12.89" shape="-399.07,47.42 -395.57,46.93 -393.07,45.44 -391.56,42.95 -391.05,39.46"/>
    </edge>
    <edge id=":gneJ13_0" function="internal">
        <lane id=":gneJ13_0_0" index="0" speed="7.66" length="12.89" shape="-396.86,-103.37 -396.35,-106.87 -394.84,-109.36 -392.33,-110.85 -388.84,-111.34"/>
    </edge>
    <edge id=":gneJ13_1" function="internal">
        <lane id=":gneJ13_1_0" index="0" speed="6.08" length="7.73" shape="-393.66,-103.36 -393.35,-105.46 -392.45,-106.95 -390.94,-107.85 -388.85,-108.14"/>
    </edge>
    <edge id=":gneJ13_2" function="internal">
        <lane id=":gneJ13_2_0" index="0" speed="3.90" length="2.58" shape="-390.46,-103.35 -390.36,-104.05 -390.06,-104.54 -389.55,-104.84 -388.86,-104.94"/>
    </edge>
    <edge id=":gneJ14_0" function="internal">
        <lane id=":gneJ14_0_0" index="0" speed="13.89" length="17.76" shape="-210.02,-116.27 -210.40,-98.40"/>
        <lane id=":gneJ14_0_1" index="1" speed="13.89" length="17.76" shape="-213.22,-116.32 -213.60,-98.53"/>
        <lane id=":gneJ14_0_2" index="2" speed="13.89" length="17.76" shape="-216.42,-116.37 -216.80,-98.66"/>
        <lane id=":gneJ14_0_3" index="3" speed="13.89" length="17.76" shape="-219.62,-116.42 -219.99,-98.79"/>
    </edge>
    <edge id=":gneJ14_4" function="internal">
        <lane id=":gneJ14_4_0" index="0" speed="9.78" length="22.35" shape="-225.41,-110.86 -218.65,-110.07 -213.90,-107.72 -211.15,-103.84 -210.40,-98.40"/>
    </edge>
    <edge id=":gneJ14_5" function="internal">
        <lane id=":gneJ14_5_0" index="0" speed="9.20" length="19.64" shape="-225.41,-110.86 -220.05,-110.08 -216.30,-107.76 -214.15,-103.91 -213.60,-98.53"/>
    </edge>
    <edge id=":gneJ14_6" function="internal">
        <lane id=":gneJ14_6_0" index="0" speed="8.61" length="17.06" shape="-225.42,-107.66 -220.11,-107.08 -216.37,-105.36 -214.20,-102.51 -213.60,-98.53"/>
    </edge>
    <edge id=":gneJ14_7" function="internal">
        <lane id=":gneJ14_7_0" index="0" speed="7.93" length="14.34" shape="-225.42,-107.66 -221.51,-107.09 -218.77,-105.40 -217.20,-102.59 -216.80,-98.66"/>
    </edge>
    <edge id=":gneJ14_8" function="internal">
        <lane id=":gneJ14_8_0" index="0" speed="7.25" length="11.79" shape="-225.43,-104.46 -221.56,-104.09 -218.84,-103.00 -217.25,-101.19 -216.80,-98.66"/>
    </edge>
    <edge id=":gneJ14_9" function="internal">
        <lane id=":gneJ14_9_0" index="0" speed="6.43" length="9.03" shape="-225.43,-104.46 -222.96,-104.10 -221.24,-103.04 -220.25,-101.26 -219.99,-98.79"/>
    </edge>
    <edge id=":gneJ16_0" function="internal">
        <lane id=":gneJ16_0_0" index="0" speed="3.90" length="2.65" shape="-215.92,38.28 -215.85,39.01 -215.56,39.52 -215.05,39.84 -214.33,39.94"/>
    </edge>
    <edge id=":gneJ16_1" function="internal">
        <lane id=":gneJ16_1_0" index="0" speed="6.07" length="7.95" shape="-219.12,38.15 -218.90,40.33 -218.03,41.89 -216.51,42.82 -214.34,43.14"/>
    </edge>
    <edge id=":gneJ16_2" function="internal">
        <lane id=":gneJ16_2_0" index="0" speed="7.65" length="13.24" shape="-222.32,38.02 -221.94,41.65 -220.49,44.25 -217.96,45.81 -214.36,46.34"/>
    </edge>
    <edge id=":gneJ16_3" function="internal">
        <lane id=":gneJ16_3_0" index="0" speed="8.96" length="18.54" shape="-225.51,37.89 -224.99,42.97 -222.96,46.61 -219.42,48.80 -214.37,49.54"/>
    </edge>
    <edge id=":gneJ18_0" function="internal">
        <lane id=":gneJ18_0_0" index="0" speed="3.91" length="2.55" shape="-207.51,-175.29 -208.20,-175.19 -208.70,-174.89 -209.00,-174.40 -209.11,-173.71"/>
    </edge>
    <edge id=":gneJ18_1" function="internal">
        <lane id=":gneJ18_1_0" index="0" speed="6.08" length="7.64" shape="-207.52,-178.49 -209.59,-178.19 -211.07,-177.30 -211.98,-175.82 -212.31,-173.76"/>
    </edge>
    <edge id=":gneJ18_2" function="internal">
        <lane id=":gneJ18_2_0" index="0" speed="7.66" length="12.74" shape="-207.53,-181.69 -210.97,-181.19 -213.45,-179.71 -214.96,-177.25 -215.51,-173.81"/>
    </edge>
    <edge id=":gneJ18_3" function="internal">
        <lane id=":gneJ18_3_0" index="0" speed="8.96" length="17.83" shape="-207.53,-184.89 -212.36,-184.19 -215.83,-182.12 -217.95,-178.68 -218.71,-173.86"/>
    </edge>
    <edge id=":gneJ29_0" function="internal">
        <lane id=":gneJ29_0_0" index="0" speed="3.90" length="2.61" shape="833.25,-175.78 833.15,-176.49 832.86,-177.00 832.35,-177.30 831.64,-177.40"/>
    </edge>
    <edge id=":gneJ29_1" function="internal">
        <lane id=":gneJ29_1_0" index="0" speed="5.21" length="5.47" shape="833.25,-175.78 833.17,-177.89 832.87,-179.40 832.36,-180.30 831.64,-180.60"/>
    </edge>
    <edge id=":gneJ29_2" function="internal">
        <lane id=":gneJ29_2_0" index="0" speed="6.31" length="8.52" shape="833.25,-175.78 833.18,-179.29 832.89,-181.80 832.37,-183.30 831.63,-183.80"/>
    </edge>
    <edge id=":gneJ29_3" function="internal">
        <lane id=":gneJ29_3_0" index="0" speed="7.76" length="13.44" shape="836.45,-175.74 836.20,-180.67 835.31,-184.19 833.79,-186.30 831.62,-187.00"/>
    </edge>
    <edge id=":gneJ30_0" function="internal">
        <lane id=":gneJ30_0_0" index="0" speed="6.40" length="9.04" shape="-153.51,34.52 -153.28,37.00 -152.30,38.78 -150.58,39.85 -148.11,40.20"/>
    </edge>
    <edge id=":gneJ30_1" function="internal">
        <lane id=":gneJ30_1_0" index="0" speed="7.23" length="11.82" shape="-153.51,34.52 -153.34,38.40 -152.39,41.18 -150.65,42.85 -148.12,43.40"/>
    </edge>
    <edge id=":gneJ30_2" function="internal">
        <lane id=":gneJ30_2_0" index="0" speed="8.00" length="14.73" shape="-153.51,34.52 -153.40,39.80 -152.47,43.58 -150.71,45.85 -148.13,46.60"/>
    </edge>
    <edge id=":gneJ30_3" function="internal">
        <lane id=":gneJ30_3_0" index="0" speed="8.73" length="17.73" shape="-153.51,34.52 -153.46,41.20 -152.55,45.98 -150.77,48.85 -148.13,49.80"/>
    </edge>
    <edge id=":gneJ30_4" function="internal">
        <lane id=":gneJ30_4_0" index="0" speed="13.89" length="11.22" shape="-159.32,40.17 -148.11,40.20"/>
        <lane id=":gneJ30_4_1" index="1" speed="13.89" length="11.22" shape="-159.34,43.37 -148.12,43.40"/>
        <lane id=":gneJ30_4_2" index="2" speed="13.89" length="11.22" shape="-159.35,46.57 -148.13,46.60"/>
        <lane id=":gneJ30_4_3" index="3" speed="13.89" length="11.22" shape="-159.36,49.77 -148.13,49.80"/>
    </edge>
    <edge id=":gneJ31_0" function="internal">
        <lane id=":gneJ31_0_0" index="0" speed="6.53" length="8.93" shape="574.73,36.56 577.12,36.21 578.85,35.16 579.91,33.42 580.30,31.00"/>
    </edge>
    <edge id=":gneJ31_1" function="internal">
        <lane id=":gneJ31_1_0" index="0" speed="13.89" length="11.00" shape="574.73,36.56 585.72,36.49"/>
    </edge>
    <edge id=":gneJ31_2" function="internal">
        <lane id=":gneJ31_2_0" index="0" speed="7.35" length="3.96" shape="574.74,39.76 577.10,39.21 578.21,38.14"/>
    </edge>
    <edge id=":gneJ31_3" function="internal">
        <lane id=":gneJ31_3_0" index="0" speed="13.89" length="11.01" shape="574.74,39.76 585.75,39.69"/>
    </edge>
    <edge id=":gneJ31_4" function="internal">
        <lane id=":gneJ31_4_0" index="0" speed="8.13" length="3.53" shape="574.76,42.96 577.09,42.21 577.74,41.34"/>
    </edge>
    <edge id=":gneJ31_5" function="internal">
        <lane id=":gneJ31_5_0" index="0" speed="13.89" length="11.02" shape="574.76,42.96 585.78,42.89"/>
    </edge>
    <edge id=":gneJ31_6" function="internal">
        <lane id=":gneJ31_6_0" index="0" speed="8.86" length="3.25" shape="574.78,46.16 577.07,45.21 577.46,44.55"/>
    </edge>
    <edge id=":gneJ31_7" function="internal">
        <lane id=":gneJ31_7_0" index="0" speed="13.89" length="11.04" shape="574.78,46.16 585.81,46.09"/>
    </edge>
    <edge id=":gneJ31_8" function="internal">
        <lane id=":gneJ31_8_0" index="0" speed="7.35" length="7.62" shape="578.21,38.14 578.82,37.56 579.88,34.82 580.30,31.00"/>
    </edge>
    <edge id=":gneJ31_9" function="internal">
        <lane id=":gneJ31_9_0" index="0" speed="8.13" length="10.87" shape="577.74,41.34 578.79,39.96 579.86,36.22 580.30,31.00"/>
    </edge>
    <edge id=":gneJ31_10" function="internal">
        <lane id=":gneJ31_10_0" index="0" speed="8.86" length="14.04" shape="577.46,44.55 578.76,42.36 579.83,37.62 580.30,31.00"/>
    </edge>
    <edge id=":gneJ32_0" function="internal">
        <lane id=":gneJ32_0_0" index="0" speed="3.90" length="2.62" shape="581.91,-43.82 581.82,-44.54 581.53,-45.05 581.02,-45.35 580.31,-45.45"/>
    </edge>
    <edge id=":gneJ35_0" function="internal">
        <lane id=":gneJ35_0_0" index="0" speed="3.91" length="2.48" shape="-148.00,-44.01 -148.67,-43.91 -149.16,-43.62 -149.47,-43.15 -149.60,-42.49"/>
    </edge>
    <edge id=":gneJ6_0" function="internal">
        <lane id=":gneJ6_0_0" index="0" speed="13.89" length="8.37" shape="113.69,39.72 116.17,40.14 117.74,41.21 119.31,42.29 121.80,42.78"/>
        <lane id=":gneJ6_0_1" index="1" speed="13.89" length="8.37" shape="113.79,42.91 121.80,42.78"/>
        <lane id=":gneJ6_0_2" index="2" speed="13.89" length="8.37" shape="113.90,46.11 121.82,45.98"/>
        <lane id=":gneJ6_0_3" index="3" speed="13.89" length="8.37" shape="114.00,49.31 116.42,48.73 117.91,47.60 119.41,46.49 121.82,45.98"/>
    </edge>
    <edge id=":gneJ9_0" function="internal">
        <lane id=":gneJ9_0_0" index="0" speed="13.89" length="8.41" shape="333.99,41.27 336.47,40.71 337.98,39.51 339.50,38.30 341.98,37.75"/>
        <lane id=":gneJ9_0_1" index="1" speed="13.89" length="8.41" shape="333.99,41.27 341.99,40.95"/>
        <lane id=":gneJ9_0_2" index="2" speed="13.89" length="8.41" shape="334.01,44.47 342.01,44.15"/>
        <lane id=":gneJ9_0_3" index="3" speed="13.89" length="8.41" shape="334.01,44.47 336.46,44.91 338.02,45.91 339.58,46.90 342.03,47.35"/>
    </edge>

    <edge id="gneE11" from="gneJ13" to="gneJ14" priority="-1">
        <lane id="gneE11_0" index="0" speed="13.89" length="163.43" shape="-388.84,-111.34 -225.41,-110.86"/>
        <lane id="gneE11_1" index="1" speed="13.89" length="163.43" shape="-388.85,-108.14 -225.42,-107.66"/>
        <lane id="gneE11_2" index="2" speed="13.89" length="163.43" shape="-388.86,-104.94 -225.43,-104.46"/>
    </edge>
    <edge id="gneE13" from="gneJ14" to="gneJ16" priority="-1">
        <lane id="gneE13_0" index="0" speed="13.89" length="136.79" shape="-210.40,-98.40 -215.92,38.28"/>
        <lane id="gneE13_1" index="1" speed="13.89" length="136.79" shape="-213.60,-98.53 -219.12,38.15"/>
        <lane id="gneE13_2" index="2" speed="13.89" length="136.79" shape="-216.80,-98.66 -222.32,38.02"/>
        <lane id="gneE13_3" index="3" speed="13.89" length="136.79" shape="-219.99,-98.79 -225.51,37.89"/>
    </edge>
    <edge id="gneE15" from="gneJ18" to="gneJ14" priority="-1">
        <lane id="gneE15_0" index="0" speed="13.89" length="57.45" shape="-209.11,-173.71 -210.02,-116.27"/>
        <lane id="gneE15_1" index="1" speed="13.89" length="57.45" shape="-212.31,-173.76 -213.22,-116.32"/>
        <lane id="gneE15_2" index="2" speed="13.89" length="57.45" shape="-215.51,-173.81 -216.42,-116.37"/>
        <lane id="gneE15_3" index="3" speed="13.89" length="57.45" shape="-218.71,-173.86 -219.62,-116.42"/>
    </edge>
    <edge id="gneE17" from="gneJ12" to="gneJ13" priority="-1">
        <lane id="gneE17_0" index="0" speed="13.89" length="142.80" shape="-397.45,39.43 -396.86,-103.37"/>
        <lane id="gneE17_1" index="1" speed="13.89" length="142.80" shape="-394.25,39.44 -393.66,-103.36"/>
        <lane id="gneE17_2" index="2" speed="13.89" length="142.80" shape="-391.05,39.46 -390.46,-103.35"/>
    </edge>
    <edge id="gneE33" from="gneJ10" to="gneJ29" priority="-1">
        <lane id="gneE33_0" index="0" speed="13.89" length="208.51" shape="830.59,32.71 833.25,-175.78"/>
        <lane id="gneE33_1" index="1" speed="13.89" length="208.51" shape="833.79,32.75 836.45,-175.74"/>
        <lane id="gneE33_2" index="2" speed="13.89" length="208.51" shape="836.99,32.80 839.64,-175.70"/>
        <lane id="gneE33_3" index="3" speed="13.89" length="208.51" shape="840.19,32.84 842.84,-175.66"/>
    </edge>
    <edge id="gneE35" from="gneJ29" to="gneJ18" priority="-1">
        <lane id="gneE35_0" index="0" speed="13.89" length="1039.16" shape="831.64,-177.40 -207.51,-175.29"/>
        <lane id="gneE35_1" index="1" speed="13.89" length="1039.16" shape="831.64,-180.60 -207.52,-178.49"/>
        <lane id="gneE35_2" index="2" speed="13.89" length="1039.16" shape="831.63,-183.80 -207.53,-181.69"/>
        <lane id="gneE35_3" index="3" speed="13.89" length="1039.16" shape="831.62,-187.00 -207.53,-184.89"/>
    </edge>
    <edge id="gneE37" from="gneJ31" to="gneJ32" priority="-1">
        <lane id="gneE37_0" index="0" speed="13.89" length="74.83" shape="580.30,31.00 581.91,-43.82"/>
    </edge>
    <edge id="gneE38" from="gneJ32" to="gneJ35" priority="-1">
        <lane id="gneE38_0" index="0" speed="13.89" length="728.31" shape="580.31,-45.45 -148.00,-44.01"/>
    </edge>
    <edge id="gneE39" from="gneJ35" to="gneJ30" priority="-1">
        <lane id="gneE39_0" index="0" speed="13.89" length="77.11" shape="-149.60,-42.49 -153.51,34.52"/>
    </edge>
    <edge id="gneE4" from="gneJ5" to="gneJ12" priority="-1" spreadType="center">
        <lane id="gneE4_0" index="0" speed="13.89" length="93.08" shape="-492.13,40.77 -399.05,41.02"/>
        <lane id="gneE4_1" index="1" speed="13.89" length="93.08" shape="-492.14,43.97 -399.06,44.22"/>
        <lane id="gneE4_2" index="2" speed="13.89" length="93.08" shape="-492.15,47.17 -399.07,47.42"/>
    </edge>
    <edge id="gneE4.264" from="gneJ16" to="gneJ30" priority="-1" spreadType="center">
        <lane id="gneE4.264_0" index="0" speed="13.89" length="55.01" shape="-214.33,39.94 -159.32,40.17"/>
        <lane id="gneE4.264_1" index="1" speed="13.89" length="55.01" shape="-214.34,43.14 -159.34,43.37"/>
        <lane id="gneE4.264_2" index="2" speed="13.89" length="55.01" shape="-214.36,46.34 -159.35,46.57"/>
        <lane id="gneE4.264_3" index="3" speed="13.89" length="55.01" shape="-214.37,49.54 -159.36,49.77"/>
    </edge>
    <edge id="gneE4.264.110" from="gneJ30" to="gneJ6" priority="-1" spreadType="center" shape="-155.64,44.99 -23.69,45.25 90.36,45.29 115.13,44.47">
        <lane id="gneE4.264.110_0" index="0" speed="13.89" length="261.98" shape="-148.11,40.20 -23.68,40.45 90.28,40.49 113.69,39.72"/>
        <lane id="gneE4.264.110_1" index="1" speed="13.89" length="261.98" shape="-148.12,43.40 -23.69,43.65 90.33,43.69 113.79,42.91"/>
        <lane id="gneE4.264.110_2" index="2" speed="13.89" length="261.98" shape="-148.13,46.60 -23.69,46.85 90.39,46.89 113.90,46.11"/>
        <lane id="gneE4.264.110_3" index="3" speed="13.89" length="261.98" shape="-148.13,49.80 -23.70,50.05 90.44,50.09 114.00,49.31"/>
    </edge>
    <edge id="gneE8" from="gneJ6" to="gneJ9" priority="-1">
        <lane id="gneE8_0" index="0" speed="13.89" length="212.20" shape="121.80,42.78 333.99,41.27"/>
        <lane id="gneE8_1" index="1" speed="13.89" length="212.20" shape="121.82,45.98 334.01,44.47"/>
    </edge>
    <edge id="gneE9" from="gneJ9" to="gneJ31" priority="-1" shape="341.35,48.95 581.54,47.73">
        <lane id="gneE9_0" index="0" speed="13.89" length="232.75" shape="341.98,37.75 574.73,36.56"/>
        <lane id="gneE9_1" index="1" speed="13.89" length="232.75" shape="341.99,40.95 574.74,39.76"/>
        <lane id="gneE9_2" index="2" speed="13.89" length="232.75" shape="342.01,44.15 574.76,42.96"/>
        <lane id="gneE9_3" index="3" speed="13.89" length="232.75" shape="342.03,47.35 574.78,46.16"/>
    </edge>
    <edge id="gneE9.252" from="gneJ31" to="gneJ10" priority="-1">
        <lane id="gneE9.252_0" index="0" speed="13.89" length="243.29" shape="585.72,36.49 829.00,34.29"/>
        <lane id="gneE9.252_1" index="1" speed="13.89" length="243.29" shape="585.75,39.69 829.03,37.49"/>
        <lane id="gneE9.252_2" index="2" speed="13.89" length="243.29" shape="585.78,42.89 829.06,40.69"/>
        <lane id="gneE9.252_3" index="3" speed="13.89" length="243.29" shape="585.81,46.09 829.09,43.89"/>
    </edge>

    <junction id="gneJ10" type="priority" x="841.63" y="45.38" incLanes="gneE9.252_0 gneE9.252_1 gneE9.252_2 gneE9.252_3" intLanes=":gneJ10_0_0 :gneJ10_1_0 :gneJ10_2_0 :gneJ10_3_0" shape="841.79,32.86 828.99,32.69 829.11,45.49 832.94,45.11 836.08,44.04 838.54,42.28 840.31,39.83 841.39,36.69">
        <request index="0" response="0000" foes="0000" cont="0"/>
        <request index="1" response="0000" foes="0000" cont="0"/>
        <request index="2" response="0000" foes="0000" cont="0"/>
        <request index="3" response="0000" foes="0000" cont="0"/>
    </junction>
    <junction id="gneJ12" type="priority" x="-389.47" y="44.25" incLanes="gneE4_0 gneE4_1 gneE4_2" intLanes=":gneJ12_0_0 :gneJ12_1_0 :gneJ12_2_0" shape="-389.45,39.46 -399.05,39.42 -399.08,49.02 -396.15,48.77 -393.75,47.97 -391.88,46.65 -390.54,44.79 -389.73,42.39">
        <request index="0" response="000" foes="000" cont="0"/>
        <request index="1" response="000" foes="000" cont="0"/>
        <request index="2" response="000" foes="000" cont="0"/>
    </junction>
    <junction id="gneJ13" type="priority" x="-388.86" y="-103.34" incLanes="gneE17_0 gneE17_1 gneE17_2" intLanes=":gneJ13_0_0 :gneJ13_1_0 :gneJ13_2_0" shape="-388.86,-103.34 -388.83,-112.94 -391.76,-112.68 -394.16,-111.89 -396.03,-110.56 -397.37,-108.70 -398.18,-106.31 -398.46,-103.38">
        <request index="0" response="000" foes="000" cont="0"/>
        <request index="1" response="000" foes="000" cont="0"/>
        <request index="2" response="000" foes="000" cont="0"/>
    </junction>
    <junction id="gneJ14" type="priority" x="-221.43" y="-102.85" incLanes="gneE15_0 gneE15_1 gneE15_2 gneE15_3 gneE11_0 gneE11_1 gneE11_2" intLanes=":gneJ14_0_0 :gneJ14_0_1 :gneJ14_0_2 :gneJ14_0_3 :gneJ14_4_0 :gneJ14_5_0 :gneJ14_6_0 :gneJ14_7_0 :gneJ14_8_0 :gneJ14_9_0" shape="-208.42,-116.25 -221.22,-116.45 -221.71,-114.23 -222.29,-113.45 -223.10,-112.90 -224.14,-112.57 -225.40,-112.46 -225.43,-102.86 -223.23,-102.41 -222.47,-101.85 -221.95,-101.07 -221.65,-100.07 -221.59,-98.85 -208.80,-98.34">
        <request index="0" response="0000000000" foes="1111110000" cont="0"/>
        <request index="1" response="0000000000" foes="1111110000" cont="0"/>
        <request index="2" response="0000000000" foes="1111110000" cont="0"/>
        <request index="3" response="0000000000" foes="1111110000" cont="0"/>
        <request index="4" response="0000001111" foes="0000001111" cont="0"/>
        <request index="5" response="0001001111" foes="0001001111" cont="0"/>
        <request index="6" response="0000001111" foes="0000101111" cont="0"/>
        <request index="7" response="0100001111" foes="0100001111" cont="0"/>
        <request index="8" response="0000001111" foes="0010001111" cont="0"/>
        <request index="9" response="0000001111" foes="0000001111" cont="0"/>
    </junction>
    <junction id="gneJ16" type="priority" x="-227.39" y="44.69" incLanes="gneE13_0 gneE13_1 gneE13_2 gneE13_3" intLanes=":gneJ16_0_0 :gneJ16_1_0 :gneJ16_2_0 :gneJ16_3_0" shape="-214.38,51.14 -214.32,38.34 -227.11,37.83 -226.91,41.88 -225.94,45.20 -224.20,47.79 -221.69,49.64 -218.42,50.76">
        <request index="0" response="0000" foes="0000" cont="0"/>
        <request index="1" response="0000" foes="0000" cont="0"/>
        <request index="2" response="0000" foes="0000" cont="0"/>
        <request index="3" response="0000" foes="0000" cont="0"/>
    </junction>
    <junction id="gneJ18" type="priority" x="-220.11" y="-186.46" incLanes="gneE35_0 gneE35_1 gneE35_2 gneE35_3" intLanes=":gneJ18_0_0 :gneJ18_1_0 :gneJ18_2_0 :gneJ18_3_0" shape="-207.51,-173.69 -207.54,-186.49 -211.38,-186.13 -214.54,-185.07 -217.02,-183.32 -218.80,-180.88 -219.90,-177.73 -220.31,-173.89">
        <request index="0" response="0000" foes="0000" cont="0"/>
        <request index="1" response="0000" foes="0000" cont="0"/>
        <request index="2" response="0000" foes="0000" cont="0"/>
        <request index="3" response="0000" foes="0000" cont="0"/>
    </junction>
    <junction id="gneJ27" type="dead_end" x="-215.87" y="-228.91" incLanes="" intLanes="" shape="-215.87,-228.91"/>
    <junction id="gneJ29" type="priority" x="844.61" y="-188.63" incLanes="gneE33_0 gneE33_1 gneE33_2 gneE33_3" intLanes=":gneJ29_0_0 :gneJ29_1_0 :gneJ29_2_0 :gneJ29_3_0" shape="831.62,-188.60 831.65,-175.80 844.44,-175.64 844.13,-179.61 843.09,-182.85 841.32,-185.38 838.82,-187.17 835.58,-188.25">
        <request index="0" response="0000" foes="0000" cont="0"/>
        <request index="1" response="0000" foes="0000" cont="0"/>
        <request index="2" response="0000" foes="0000" cont="0"/>
        <request index="3" response="0000" foes="0000" cont="0"/>
    </junction>
    <junction id="gneJ30" type="priority" x="-155.64" y="44.99" incLanes="gneE39_0 gneE4.264_0 gneE4.264_1 gneE4.264_2 gneE4.264_3" intLanes=":gneJ30_0_0 :gneJ30_1_0 :gneJ30_2_0 :gneJ30_3_0 :gneJ30_4_0 :gneJ30_4_1 :gneJ30_4_2 :gneJ30_4_3" shape="-148.14,51.40 -148.11,38.60 -150.31,38.16 -151.06,37.60 -151.58,36.82 -151.86,35.82 -151.91,34.60 -155.10,34.44 -155.67,36.74 -156.26,37.55 -157.07,38.12 -158.09,38.46 -159.32,38.57 -159.37,51.37">
        <request index="0" response="11110000" foes="11110000" cont="0"/>
        <request index="1" response="11110000" foes="11110000" cont="0"/>
        <request index="2" response="11110000" foes="11110000" cont="0"/>
        <request index="3" response="11110000" foes="11110000" cont="0"/>
        <request index="4" response="00000000" foes="00001111" cont="0"/>
        <request index="5" response="00000000" foes="00001111" cont="0"/>
        <request index="6" response="00000000" foes="00001111" cont="0"/>
        <request index="7" response="00000000" foes="00001111" cont="0"/>
    </junction>
    <junction id="gneJ31" type="priority" x="581.54" y="47.73" incLanes="gneE9_0 gneE9_1 gneE9_2 gneE9_3" intLanes=":gneJ31_0_0 :gneJ31_1_0 :gneJ31_8_0 :gneJ31_3_0 :gneJ31_9_0 :gneJ31_5_0 :gneJ31_10_0 :gneJ31_7_0" shape="585.83,47.69 585.71,34.89 583.56,34.48 582.81,33.94 582.29,33.19 581.98,32.22 581.90,31.03 578.70,30.96 578.22,33.18 577.66,33.95 576.89,34.51 575.91,34.85 574.72,34.96 574.78,47.76">
        <request index="0" response="00000000" foes="01010100" cont="0"/>
        <request index="1" response="00000000" foes="01010100" cont="0"/>
        <request index="2" response="00000011" foes="01010011" cont="1"/>
        <request index="3" response="00000000" foes="01010000" cont="0"/>
        <request index="4" response="00001111" foes="01001111" cont="1"/>
        <request index="5" response="00000000" foes="01000000" cont="0"/>
        <request index="6" response="00111111" foes="00111111" cont="1"/>
        <request index="7" response="00000000" foes="00000000" cont="0"/>
    </junction>
    <junction id="gneJ32" type="priority" x="583.58" y="-47.06" incLanes="gneE37_0" intLanes=":gneJ32_0_0" shape="580.30,-47.05 580.31,-43.85 583.51,-43.78 583.18,-45.60 582.74,-46.24 582.12,-46.69 581.30,-46.96">
        <request index="0" response="0" foes="0" cont="0"/>
    </junction>
    <junction id="gneJ35" type="priority" x="-151.04" y="-45.60" incLanes="gneE38_0" intLanes=":gneJ35_0_0" shape="-148.00,-42.41 -148.00,-45.61 -149.71,-45.27 -150.32,-44.84 -150.77,-44.25 -151.06,-43.49 -151.19,-42.57">
        <request index="0" response="0" foes="0" cont="0"/>
    </junction>
    <junction id="gneJ5" type="dead_end" x="-492.14" y="43.97" incLanes="" intLanes="" shape="-492.15,48.77 -492.13,39.17"/>
    <junction id="gneJ6" type="priority" x="120.55" y="47.59" incLanes="gneE4.264.110_0 gneE4.264.110_1 gneE4.264.110_2 gneE4.264.110_3" intLanes=":gneJ6_0_0 :gneJ6_0_1 :gneJ6_0_2 :gneJ6_0_3" shape="121.83,47.58 121.79,41.18 118.71,40.37 117.71,39.61 116.72,38.85 115.45,38.30 113.63,38.12 114.06,50.91 117.01,49.99 117.95,49.20 118.88,48.43 120.08,47.83">
        <request index="0" response="0010" foes="0010" cont="0"/>
        <request index="1" response="0000" foes="0001" cont="0"/>
        <request index="2" response="1000" foes="1000" cont="0"/>
        <request index="3" response="0000" foes="0100" cont="0"/>
    </junction>
    <junction id="gneJ9" type="priority" x="334.71" y="46.07" incLanes="gneE8_0 gneE8_1" intLanes=":gneJ9_0_0 :gneJ9_0_1 :gneJ9_0_2 :gneJ9_0_3" shape="342.03,48.95 341.97,36.15 338.93,37.06 337.02,38.75 335.79,39.40 333.98,39.68 334.03,46.07 337.05,46.81 339.01,48.20 340.26,48.74">
        <request index="0" response="0000" foes="0000" cont="0"/>
        <request index="1" response="0000" foes="0000" cont="0"/>
        <request index="2" response="0000" foes="0000" cont="0"/>
        <request index="3" response="0000" foes="0000" cont="0"/>
    </junction>

    <junction id=":gneJ31_8_0" type="internal" x="578.21" y="38.14" incLanes=":gneJ31_2_0 gneE9_0" intLanes=":gneJ31_1_0"/>
    <junction id=":gneJ31_9_0" type="internal" x="577.74" y="41.34" incLanes=":gneJ31_4_0 gneE9_0 gneE9_1" intLanes=":gneJ31_1_0 :gneJ31_3_0"/>
    <junction id=":gneJ31_10_0" type="internal" x="577.46" y="44.55" incLanes=":gneJ31_6_0 gneE9_0 gneE9_1 gneE9_2" intLanes=":gneJ31_1_0 :gneJ31_3_0 :gneJ31_5_0"/>

    <connection from="gneE11" to="gneE13" fromLane="0" toLane="0" via=":gneJ14_4_0" dir="l" state="m"/>
    <connection from="gneE11" to="gneE13" fromLane="0" toLane="1" via=":gneJ14_5_0" dir="l" state="m"/>
    <connection from="gneE11" to="gneE13" fromLane="1" toLane="1" via=":gneJ14_6_0" dir="l" state="m"/>
    <connection from="gneE11" to="gneE13" fromLane="1" toLane="2" via=":gneJ14_7_0" dir="l" state="m"/>
    <connection from="gneE11" to="gneE13" fromLane="2" toLane="2" via=":gneJ14_8_0" dir="l" state="m"/>
    <connection from="gneE11" to="gneE13" fromLane="2" toLane="3" via=":gneJ14_9_0" dir="l" state="m"/>
    <connection from="gneE13" to="gneE4.264" fromLane="0" toLane="0" via=":gneJ16_0_0" dir="r" state="M"/>
    <connection from="gneE13" to="gneE4.264" fromLane="1" toLane="1" via=":gneJ16_1_0" dir="r" state="M"/>
    <connection from="gneE13" to="gneE4.264" fromLane="2" toLane="2" via=":gneJ16_2_0" dir="r" state="M"/>
    <connection from="gneE13" to="gneE4.264" fromLane="3" toLane="3" via=":gneJ16_3_0" dir="r" state="M"/>
    <connection from="gneE15" to="gneE13" fromLane="0" toLane="0" via=":gneJ14_0_0" dir="s" state="M"/>
    <connection from="gneE15" to="gneE13" fromLane="1" toLane="1" via=":gneJ14_0_1" dir="s" state="M"/>
    <connection from="gneE15" to="gneE13" fromLane="2" toLane="2" via=":gneJ14_0_2" dir="s" state="M"/>
    <connection from="gneE15" to="gneE13" fromLane="3" toLane="3" via=":gneJ14_0_3" dir="s" state="M"/>
    <connection from="gneE17" to="gneE11" fromLane="0" toLane="0" via=":gneJ13_0_0" dir="l" state="M"/>
    <connection from="gneE17" to="gneE11" fromLane="1" toLane="1" via=":gneJ13_1_0" dir="l" state="M"/>
    <connection from="gneE17" to="gneE11" fromLane="2" toLane="2" via=":gneJ13_2_0" dir="l" state="M"/>
    <connection from="gneE33" to="gneE35" fromLane="0" toLane="0" via=":gneJ29_0_0" dir="r" state="M"/>
    <connection from="gneE33" to="gneE35" fromLane="0" toLane="1" via=":gneJ29_1_0" dir="r" state="M"/>