<?xml version="1.0" encoding="UTF-8"?>

<!-- generated on Thu Jan 30 16:34:09 2020 by Eclipse SUMO netedit Version v1_1_0+0000-2147d155b1
<configuration xmlns:xsi="http://www.w3.org/2001/XMLSchema-instance" xsi:noNamespaceSchemaLocation="http://sumo.dlr.de/xsd/netconvertConfiguration.xsd">

    <input>
        <sumo-net-file value="construction.net.xml"/>
    </input>

    <output>
        <output-file value="/home/llavezzo/constructionV2.net.xml"/>
    </output>

    <processing>
        <geometry.max-grade.fix value="false"/>
        <offset.disable-normalization value="true"/>
        <lefthand value="false"/>
    </processing>

    <junctions>
        <no-turnarounds value="true"/>
        <junctions.corner-detail value="5"/>
        <junctions.limit-turn-speed value="5.5"/>
        <rectangular-lane-cut value="false"/>
    </junctions>

    <pedestrian>
        <walkingareas value="false"/>
    </pedestrian>

</configuration>
-->

<net version="1.1" junctionCornerDetail="5" limitTurnSpeed="5.50" xmlns:xsi="http://www.w3.org/2001/XMLSchema-instance" xsi:noNamespaceSchemaLocation="http://sumo.dlr.de/xsd/net_file.xsd">

    <location netOffset="0.00,0.00" convBoundary="-492.14,-186.46,549.93,48.24" origBoundary="-10000000000.00,-10000000000.00,10000000000.00,10000000000.00" projParameter="!"/>

    <edge id=":gneJ12_0" function="internal">
        <lane id=":gneJ12_0_0" index="0" speed="3.90" length="2.58" shape="-399.06,41.02 -398.36,40.93 -397.86,40.63 -397.56,40.13 -397.45,39.43"/>
    </edge>
    <edge id=":gneJ12_1" function="internal">
        <lane id=":gneJ12_1_0" index="0" speed="6.08" length="7.73" shape="-399.07,44.22 -396.97,43.93 -395.47,43.04 -394.56,41.54 -394.25,39.44"/>
    </edge>
    <edge id=":gneJ12_2" function="internal">
        <lane id=":gneJ12_2_0" index="0" speed="7.66" length="12.89" shape="-399.08,47.42 -395.58,46.93 -393.08,45.44 -391.57,42.95 -391.05,39.46"/>
    </edge>
    <edge id=":gneJ13_0" function="internal">
        <lane id=":gneJ13_0_0" index="0" speed="7.66" length="12.89" shape="-396.86,-103.37 -396.35,-106.87 -394.84,-109.36 -392.33,-110.85 -388.84,-111.34"/>
    </edge>
    <edge id=":gneJ13_1" function="internal">
        <lane id=":gneJ13_1_0" index="0" speed="6.08" length="7.73" shape="-393.66,-103.36 -393.35,-105.46 -392.45,-106.95 -390.94,-107.85 -388.85,-108.14"/>
    </edge>
    <edge id=":gneJ13_2" function="internal">
        <lane id=":gneJ13_2_0" index="0" speed="3.90" length="2.58" shape="-390.46,-103.35 -390.36,-104.05 -390.06,-104.54 -389.55,-104.84 -388.86,-104.94"/>
    </edge>
    <edge id=":gneJ14_0" function="internal">
        <lane id=":gneJ14_0_0" index="0" speed="13.89" length="18.16" shape="-213.22,-116.32 -212.79,-110.97 -211.72,-107.36 -210.71,-103.75 -210.40,-98.40"/>
        <lane id=":gneJ14_0_1" index="1" speed="13.89" length="18.16" shape="-216.42,-116.37 -215.98,-111.04 -214.92,-107.45 -213.90,-103.86 -213.60,-98.53"/>
        <lane id=":gneJ14_0_2" index="2" speed="13.89" length="18.16" shape="-219.62,-116.42 -219.18,-111.12 -218.12,-107.54 -217.10,-103.96 -216.80,-98.66"/>
    </edge>
    <edge id=":gneJ14_3" function="internal">
        <lane id=":gneJ14_3_0" index="0" speed="9.20" length="4.89" shape="-225.41,-110.86 -220.57,-110.15"/>
    </edge>
    <edge id=":gneJ14_4" function="internal">
        <lane id=":gneJ14_4_0" index="0" speed="7.93" length="6.59" shape="-225.42,-107.66 -221.51,-107.09 -219.26,-105.70"/>
    </edge>
    <edge id=":gneJ14_5" function="internal">
        <lane id=":gneJ14_5_0" index="0" speed="6.43" length="9.03" shape="-225.43,-104.46 -222.96,-104.10 -221.24,-103.04 -220.25,-101.26 -219.99,-98.79"/>
    </edge>
    <edge id=":gneJ14_6" function="internal">
        <lane id=":gneJ14_6_0" index="0" speed="9.20" length="14.75" shape="-220.57,-110.15 -220.05,-110.08 -216.30,-107.76 -214.15,-103.91 -213.60,-98.53"/>
    </edge>
    <edge id=":gneJ14_7" function="internal">
        <lane id=":gneJ14_7_0" index="0" speed="7.93" length="7.75" shape="-219.26,-105.70 -218.77,-105.40 -217.20,-102.59 -216.80,-98.66"/>
    </edge>
    <edge id=":gneJ16_0" function="internal">
        <lane id=":gneJ16_0_0" index="0" speed="3.90" length="2.65" shape="-215.92,38.26 -215.85,38.99 -215.56,39.51 -215.05,39.82 -214.33,39.93"/>
    </edge>
    <edge id=":gneJ16_1" function="internal">
        <lane id=":gneJ16_1_0" index="0" speed="6.07" length="7.95" shape="-219.12,38.14 -218.90,40.31 -218.03,41.87 -216.51,42.81 -214.34,43.13"/>
    </edge>
    <edge id=":gneJ16_2" function="internal">
        <lane id=":gneJ16_2_0" index="0" speed="7.65" length="13.26" shape="-222.32,38.01 -221.95,41.64 -220.49,44.24 -217.96,45.80 -214.35,46.33"/>
    </edge>
    <edge id=":gneJ16_3" function="internal">
        <lane id=":gneJ16_3_0" index="0" speed="8.96" length="18.56" shape="-225.52,37.88 -224.99,42.96 -222.96,46.60 -219.41,48.79 -214.36,49.53"/>
    </edge>
    <edge id=":gneJ6_0" function="internal">
        <lane id=":gneJ6_0_0" index="0" speed="13.89" length="10.40" shape="14.34,37.42 17.50,37.71 19.56,38.77 21.63,39.92 24.79,40.45"/>
        <lane id=":gneJ6_0_1" index="1" speed="13.89" length="10.40" shape="14.60,40.61 24.79,40.45"/>
        <lane id=":gneJ6_0_2" index="2" speed="13.89" length="10.40" shape="14.85,43.80 24.79,43.65"/>
        <lane id=":gneJ6_0_3" index="3" speed="13.89" length="10.40" shape="15.10,46.99 18.05,46.30 19.94,45.17 21.83,44.12 24.79,43.65"/>
    </edge>
    <edge id=":gneJ7_0" function="internal">
        <lane id=":gneJ7_0_0" index="0" speed="3.90" length="2.58" shape="19.50,12.24 19.60,11.54 19.90,11.04 20.40,10.74 21.10,10.64"/>
    </edge>
    <edge id=":gneJ8_0" function="internal">
        <lane id=":gneJ8_0_0" index="0" speed="3.90" length="2.57" shape="174.34,10.88 175.04,10.98 175.54,11.28 175.84,11.78 175.94,12.47"/>
    </edge>
    <edge id=":gneJ9_0" function="internal">
        <lane id=":gneJ9_0_0" index="0" speed="6.50" length="9.03" shape="176.02,31.47 176.38,33.92 177.44,35.67 179.20,36.70 181.65,37.04"/>
    </edge>
    <edge id=":gneJ9_1" function="internal">
        <lane id=":gneJ9_1_0" index="0" speed="7.32" length="11.73" shape="176.02,31.47 176.39,35.32 177.45,38.07 179.21,39.70 181.67,40.24"/>
    </edge>
    <edge id=":gneJ9_2" function="internal">
        <lane id=":gneJ9_2_0" index="0" speed="13.89" length="11.54" shape="170.45,40.56 173.85,40.01 176.05,38.81 178.25,37.61 181.65,37.04"/>
        <lane id=":gneJ9_2_1" index="1" speed="13.89" length="11.54" shape="170.45,40.56 181.67,40.24"/>
        <lane id=":gneJ9_2_2" index="2" speed="13.89" length="11.54" shape="170.45,43.76 181.70,43.44"/>
        <lane id=":gneJ9_2_3" index="3" speed="13.89" length="11.54" shape="170.45,43.76 173.85,44.21 176.09,45.21 178.33,46.20 181.72,46.64"/>
    </edge>

    <edge id="gneE11" from="gneJ13" to="gneJ14" priority="-1">
        <lane id="gneE11_0" index="0" speed="13.89" length="163.43" shape="-388.84,-111.34 -225.41,-110.86"/>
        <lane id="gneE11_1" index="1" speed="13.89" length="163.43" shape="-388.85,-108.14 -225.42,-107.66"/>
        <lane id="gneE11_2" index="2" speed="13.89" length="163.43" shape="-388.86,-104.94 -225.43,-104.46"/>
    </edge>
    <edge id="gneE13" from="gneJ14" to="gneJ16" priority="-1">
        <lane id="gneE13_0" index="0" speed="13.89" length="136.78" shape="-210.40,-98.40 -215.92,38.26"/>
        <lane id="gneE13_1" index="1" speed="13.89" length="136.78" shape="-213.60,-98.53 -219.12,38.14"/>
        <lane id="gneE13_2" index="2" speed="13.89" length="136.78" shape="-216.80,-98.66 -222.32,38.01"/>
        <lane id="gneE13_3" index="3" speed="13.89" length="136.78" shape="-219.99,-98.79 -225.52,37.88"/>
    </edge>
    <edge id="gneE15" from="gneJ18" to="gneJ14" priority="-1">
        <lane id="gneE15_0" index="0" speed="13.89" length="70.02" shape="-212.11,-186.33 -213.22,-116.32"/>
        <lane id="gneE15_1" index="1" speed="13.89" length="70.02" shape="-215.31,-186.38 -216.42,-116.37"/>
        <lane id="gneE15_2" index="2" speed="13.89" length="70.02" shape="-218.51,-186.43 -219.62,-116.42"/>
    </edge>
    <edge id="gneE17" from="gneJ12" to="gneJ13" priority="-1">
        <lane id="gneE17_0" index="0" speed="13.89" length="142.81" shape="-397.45,39.43 -396.86,-103.37"/>
        <lane id="gneE17_1" index="1" speed="13.89" length="142.81" shape="-394.25,39.44 -393.66,-103.36"/>
        <lane id="gneE17_2" index="2" speed="13.89" length="142.81" shape="-391.05,39.46 -390.46,-103.35"/>
    </edge>
    <edge id="gneE4" from="gneJ5" to="gneJ12" priority="-1" spreadType="center">
        <lane id="gneE4_0" index="0" speed="13.89" length="93.07" shape="-492.13,40.77 -399.06,41.02"/>
        <lane id="gneE4_1" index="1" speed="13.89" length="93.07" shape="-492.14,43.97 -399.07,44.22"/>
        <lane id="gneE4_2" index="2" speed="13.89" length="93.07" shape="-492.15,47.17 -399.08,47.42"/>
    </edge>
    <edge id="gneE4.264" from="gneJ16" to="gneJ6" priority="-1" spreadType="center" shape="-227.39,44.69 -23.69,45.25 15.68,42.13">
        <lane id="gneE4.264_0" index="0" speed="13.89" length="229.18" shape="-214.33,39.93 -23.87,40.45 14.34,37.42"/>
        <lane id="gneE4.264_1" index="1" speed="13.89" length="229.18" shape="-214.34,43.13 -23.75,43.65 14.60,40.61"/>
        <lane id="gneE4.264_2" index="2" speed="13.89" length="229.18" shape="-214.35,46.33 -23.63,46.85 14.85,43.80"/>
        <lane id="gneE4.264_3" index="3" speed="13.89" length="229.18" shape="-214.36,49.53 -23.51,50.05 15.10,46.99"/>
    </edge>
    <edge id="gneE5" from="gneJ6" to="gneJ7" priority="-1">
        <lane id="gneE5_0" index="0" speed="13.89" length="19.60" shape="19.50,31.84 19.50,12.24"/>
    </edge>
    <edge id="gneE6" from="gneJ7" to="gneJ8" priority="-1">
        <lane id="gneE6_0" index="0" speed="13.89" length="153.24" shape="21.10,10.64 174.34,10.88"/>
    </edge>
    <edge id="gneE7" from="gneJ8" to="gneJ9" priority="-1">
        <lane id="gneE7_0" index="0" speed="13.89" length="19.00" shape="175.94,12.47 176.02,31.47"/>
    </edge>
    <edge id="gneE8" from="gneJ6" to="gneJ9" priority="-1">
        <lane id="gneE8_0" index="0" speed="13.89" length="145.66" shape="24.79,40.45 170.45,40.56"/>
        <lane id="gneE8_1" index="1" speed="13.89" length="145.66" shape="24.79,43.65 170.45,43.76"/>
    </edge>
    <edge id="gneE9" from="gneJ9" to="gneJ10" priority="-1" shape="181.12,48.24 549.93,45.44">
        <lane id="gneE9_0" index="0" speed="13.89" length="368.21" shape="181.65,37.04 549.84,34.24"/>
        <lane id="gneE9_1" index="1" speed="13.89" length="368.21" shape="181.67,40.24 549.87,37.44"/>
        <lane id="gneE9_2" index="2" speed="13.89" length="368.21" shape="181.70,43.44 549.89,40.64"/>
        <lane id="gneE9_3" index="3" speed="13.89" length="368.21" shape="181.72,46.64 549.92,43.84"/>
    </edge>

    <junction id="gneJ10" type="dead_end" x="549.93" y="45.44" incLanes="gneE9_0 gneE9_1 gneE9_2 gneE9_3" intLanes="" shape="549.83,32.64 549.93,45.44"/>
    <junction id="gneJ12" type="priority" x="-389.47" y="44.25" incLanes="gneE4_0 gneE4_1 gneE4_2" intLanes=":gneJ12_0_0 :gneJ12_1_0 :gneJ12_2_0" shape="-389.45,39.46 -399.05,39.42 -399.08,49.02 -396.15,48.77 -393.75,47.97 -391.88,46.65 -390.54,44.79 -389.73,42.39">
        <request index="0" response="000" foes="000" cont="0"/>
        <request index="1" response="000" foes="000" cont="0"/>
        <request index="2" response="000" foes="000" cont="0"/>
    </junction>
    <junction id="gneJ13" type="priority" x="-388.86" y="-103.34" incLanes="gneE17_0 gneE17_1 gneE17_2" intLanes=":gneJ13_0_0 :gneJ13_1_0 :gneJ13_2_0" shape="-388.86,-103.34 -388.83,-112.94 -391.76,-112.68 -394.16,-111.89 -396.03,-110.56 -397.37,-108.70 -398.18,-106.31 -398.46,-103.38">
        <request index="0" response="000" foes="000" cont="0"/>
        <request index="1" response="000" foes="000" cont="0"/>
        <request index="2" response="000" foes="000" cont="0"/>
    </junction>
    <junction id="gneJ14" type="priority" x="-221.43" y="-102.85" incLanes="gneE15_0 gneE15_1 gneE15_2 gneE11_0 gneE11_1 gneE11_2" intLanes=":gneJ14_0_0 :gneJ14_0_1 :gneJ14_0_2 :gneJ14_6_0 :gneJ14_7_0 :gneJ14_5_0" shape="-211.62,-116.30 -221.21,-116.45 -221.71,-114.23 -222.29,-113.45 -223.10,-112.90 -224.14,-112.57 -225.40,-112.46 -225.43,-102.86 -223.23,-102.41 -222.47,-101.85 -221.95,-101.07 -221.65,-100.07 -221.59,-98.85 -208.80,-98.34 -208.89,-102.19 -209.40,-105.01 -210.13,-107.31 -210.87,-109.62 -211.43,-112.44">
        <request index="0" response="000000" foes="111000" cont="0"/>
        <request index="1" response="000000" foes="111000" cont="0"/>
        <request index="2" response="000000" foes="111000" cont="0"/>
        <request index="3" response="000111" foes="000111" cont="1"/>
        <request index="4" response="000111" foes="000111" cont="1"/>
        <request index="5" response="000111" foes="000111" cont="0"/>
    </junction>
    <junction id="gneJ16" type="priority" x="-227.39" y="44.69" incLanes="gneE13_0 gneE13_1 gneE13_2 gneE13_3" intLanes=":gneJ16_0_0 :gneJ16_1_0 :gneJ16_2_0 :gneJ16_3_0" shape="-214.36,51.13 -214.32,38.33 -227.11,37.81 -226.91,41.87 -225.94,45.19 -224.19,47.78 -221.68,49.63 -218.41,50.75">
        <request index="0" response="0000" foes="0000" cont="0"/>
        <request index="1" response="0000" foes="0000" cont="0"/>
        <request index="2" response="0000" foes="0000" cont="0"/>
        <request index="3" response="0000" foes="0000" cont="0"/>
    </junction>
    <junction id="gneJ18" type="dead_end" x="-220.11" y="-186.46" incLanes="" intLanes="" shape="-220.11,-186.46 -210.51,-186.31"/>
    <junction id="gneJ5" type="dead_end" x="-492.14" y="43.97" incLanes="" intLanes="" shape="-492.15,48.77 -492.13,39.17"/>
    <junction id="gneJ6" type="priority" x="21.10" y="45.25" incLanes="gneE4.264_0 gneE4.264_1 gneE4.264_2 gneE4.264_3" intLanes=":gneJ6_0_0 :gneJ6_0_1 :gneJ6_0_2 :gneJ6_0_3" shape="24.79,45.25 24.80,38.85 22.74,38.07 22.02,37.10 21.51,35.73 21.20,33.98 21.10,31.84 17.90,31.84 17.49,33.92 16.98,34.68 16.26,35.25 15.34,35.63 14.22,35.83 15.23,48.59 17.34,48.20 18.82,47.54 20.00,46.77 21.18,46.03 22.67,45.47">
        <request index="0" response="0000" foes="0010" cont="0"/>
        <request index="1" response="0001" foes="0001" cont="0"/>
        <request index="2" response="0000" foes="1000" cont="0"/>
        <request index="3" response="0100" foes="0100" cont="0"/>
    </junction>
    <junction id="gneJ7" type="priority" x="21.10" y="12.24" incLanes="gneE5_0" intLanes=":gneJ7_0_0" shape="17.90,12.24 21.10,12.24 21.11,9.04 19.32,9.39 18.70,9.84 18.26,10.46 17.99,11.26">
        <request index="0" response="0" foes="0" cont="0"/>
    </junction>
    <junction id="gneJ8" type="priority" x="174.34" y="12.48" incLanes="gneE6_0" intLanes=":gneJ8_0_0" shape="174.34,12.48 177.54,12.47 177.18,10.70 176.73,10.08 176.11,9.64 175.32,9.37 174.35,9.28">
        <request index="0" response="0" foes="0" cont="0"/>
    </junction>
    <junction id="gneJ9" type="priority" x="174.48" y="45.36" incLanes="gneE7_0 gneE8_0 gneE8_1" intLanes=":gneJ9_0_0 :gneJ9_1_0 :gneJ9_2_0 :gneJ9_2_1 :gneJ9_2_2 :gneJ9_2_3" shape="181.73,48.24 181.64,35.44 179.41,35.01 178.63,34.46 178.07,33.68 177.74,32.69 177.62,31.47 174.42,31.48 174.32,33.77 173.99,35.64 173.44,37.09 172.67,38.13 171.67,38.75 170.45,38.96 170.45,45.36 172.90,45.57 174.67,46.11 176.09,46.81 177.51,47.51 179.28,48.04">
        <request index="0" response="111100" foes="111100" cont="0"/>
        <request index="1" response="111100" foes="111100" cont="0"/>
        <request index="2" response="000000" foes="000011" cont="0"/>
        <request index="3" response="000000" foes="000011" cont="0"/>
        <request index="4" response="000000" foes="000011" cont="0"/>
        <request index="5" response="000000" foes="000011" cont="0"/>
    </junction>

    <junction id=":gneJ14_6_0" type="internal" x="-220.57" y="-110.15" incLanes=":gneJ14_3_0 gneE15_0 gneE15_1 gneE15_2" intLanes=":gneJ14_0_0 :gneJ14_0_1 :gneJ14_0_2"/>
    <junction id=":gneJ14_7_0" type="internal" x="-219.26" y="-105.70" incLanes=":gneJ14_4_0 gneE15_0 gneE15_1 gneE15_2" intLanes=":gneJ14_0_0 :gneJ14_0_1 :gneJ14_0_2"/>

    <connection from="gneE11" to="gneE13" fromLane="0" toLane="1" via=":gneJ14_3_0" dir="l" state="m"/>
    <connection from="gneE11" to="gneE13" fromLane="1" toLane="2" via=":gneJ14_4_0" dir="l" state="m"/>
    <connection from="gneE11" to="gneE13" fromLane="2" toLane="3" via=":gneJ14_5_0" dir="l" state="m"/>
    <connection from="gneE13" to="gneE4.264" fromLane="0" toLane="0" via=":gneJ16_0_0" dir="r" state="M"/>
    <connection from="gneE13" to="gneE4.264" fromLane="1" toLane="1" via=":gneJ16_1_0" dir="r" state="M"/>
    <connection from="gneE13" to="gneE4.264" fromLane="2" toLane="2" via=":gneJ16_2_0" dir="r" state="M"/>
    <connection from="gneE13" to="gneE4.264" fromLane="3" toLane="3" via=":gneJ16_3_0" dir="r" state="M"/>
    <connection from="gneE15" to="gneE13" fromLane="0" toLane="0" via=":gneJ14_0_0" dir="s" state="M"/>
    <connection from="gneE15" to="gneE13" fromLane="1" toLane="1" via=":gneJ14_0_1" dir="s" state="M"/>
    <connection from="gneE15" to="gneE13" fromLane="2" toLane="2" via=":gneJ14_0_2" dir="s" state="M"/>
    <connection from="gneE17" to="gneE11" fromLane="0" toLane="0" via=":gneJ13_0_0" dir="l" state="M"/>
    <connection from="gneE17" to="gneE11" fromLane="1" toLane="1" via=":gneJ13_1_0" dir="l" state="M"/>
    <connection from="gneE17" to="gneE11" fromLane="2" toLane="2" via=":gneJ13_2_0" dir="l" state="M"/>
    <connection from="gneE4" to="gneE17" fromLane="0" toLane="0" via=":gneJ12_0_0" dir="r" state="M"/>
    <connection from="gneE4" to="gneE17" fromLane="1" toLane="1" via=":gneJ12_1_0" dir="r" state="M"/>
    <connection from="gneE4" to="gneE17" fromLane="2" toLane="2" via=":gneJ12_2_0" dir="r" state="M"/>
    <connection from="gneE4.264" to="gneE8" fromLane="0" toLane="0" via=":gneJ6_0_0" dir="s" state="M"/>
    <connection from="gneE4.264" to="gneE8" fromLane="1" toLane="0" via=":gneJ6_0_1" dir="s" state="m"/>
    <connection from="gneE4.264" to="gneE8" fromLane="2" toLane="1" via=":gneJ6_0_2" dir="s" state="M"/>
    <connection from="gneE4.264" to="gneE8" fromLane="3" toLane="1" via=":gneJ6_0_3" dir="s" state="m"/>
    <connection from="gneE5" to="gneE6" fromLane="0" toLane="0" via=":gneJ7_0_0" dir="l" state="M"/>
    <connection from="gneE6" to="gneE7" fromLane="0" toLane="0" via=":gneJ8_0_0" dir="l" state="M"/>
    <connection from="gneE7" to="gneE9" fromLane="0" toLane="0" via=":gneJ9_0_0" dir="r" state="m"/>
    <connection from="gneE7" to="gneE9" fromLane="0" toLane="1" via=":gneJ9_1_0" dir="r" state="m"/>
    <connection from="gneE8" to="gneE9" fromLane="0" toLane="0" via=":gneJ9_2_0" dir="s" state="M"/>
    <connection from="gneE8" to="gneE9" fromLane="0" toLane="1" via=":gneJ9_2_1" dir="s" state="M"/>
    <connection from="gneE8" to="gneE9" fromLane="1" toLane="2" via=":gneJ9_2_2" dir="s" state="M"/>
    <connection from="gneE8" to="gneE9" fromLane="1" toLane="3" via=":gneJ9_2_3" dir="s" state="M"/>

    <connection from=":gneJ12_0" to="gneE17" fromLane="0" toLane="0" dir="r" state="M"/>
    <connection from=":gneJ12_1" to="gneE17" fromLane="0" toLane="1" dir="r" state="M"/>
    <connection from=":gneJ12_2" to="gneE17" fromLane="0" toLane="2" dir="r" state="M"/>
    <connection from=":gneJ13_0" to="gneE11" fromLane="0" toLane="0" dir="l" state="M"/>
    <connection from=":gneJ13_1" to="gneE11" fromLane="0" toLane="1" dir="l" state="M"/>
    <connection from=":gneJ13_2" to="gneE11" fromLane="0" toLane="2" dir="l" state="M"/>
    <connection from=":gneJ14_0" to="gneE13" fromLane="0" toLane="0" dir="s" state="M"/>
    <connection from=":gneJ14_0" to="gneE13" fromLane="1" toLane="1" dir="s" state="M"/>
    <connection from=":gneJ14_0" to="gneE13" fromLane="2" toLane="2" dir="s" state="M"/>
    <connection from=":gneJ14_3" to="gneE13" fromLane="0" toLane="1" via=":gneJ14_6_0" dir="l" state="m"/>
    <connection from=":gneJ14_6" to="gneE13" fromLane="0" toLane="1" dir="l" state="M"/>
    <connection from=":gneJ14_4" to="gneE13" fromLane="0" toLane="2" via=":gneJ14_7_0" dir="l" state="m"/>
    <connection from=":gneJ14_7" to="gneE13" fromLane="0" toLane="2" dir="l" state="M"/>
    <connection from=":gneJ14_5" to="gneE13" fromLane="0" toLane="3" dir="l" state="M"/>
    <connection from=":gneJ16_0" to="gneE4.264" fromLane="0" toLane="0" dir="r" state="M"/>
    <connection from=":gneJ16_1" to="gneE4.264" fromLane="0" toLane="1" dir="r" state="M"/>
    <connection from=":gneJ16_2" to="gneE4.264" fromLane="0" toLane="2" dir="r" state="M"/>
    <connection from=":gneJ16_3" to="gneE4.264" fromLane="0" toLane="3" dir="r" state="M"/>
    <connection from=":gneJ6_0" to="gneE8" fromLane="0" toLane="0" dir="s" state="M"/>
    <connection from=":gneJ6_0" to="gneE8" fromLane="1" toLane="0" dir="s" state="M"/>
    <connection from=":gneJ6_0" to="gneE8" fromLane="2" toLane="1" dir="s" state="M"/>
    <connection from=":gneJ6_0" to="gneE8" fromLane="3" toLane="1" dir="s" state="M"/>
    <connection from=":gneJ7_0" to="gneE6" fromLane="0" toLane="0" dir="l" state="M"/>
    <connection from=":gneJ8_0" to="gneE7" fromLane="0" toLane="0" dir="l" state="M"/>
    <connection from=":gneJ9_0" to="gneE9" fromLane="0" toLane="0" dir="r" state="M"/>
    <connection from=":gneJ9_1" to="gneE9" fromLane="0" toLane="1" dir="r" state="M"/>
    <connection from=":gneJ9_2" to="gneE9" fromLane="0" toLane="0" dir="s" state="M"/>
    <connection from=":gneJ9_2" to="gneE9" fromLane="1" toLane="1" dir="s" state="M"/>
    <connection from=":gneJ9_2" to="gneE9" fromLane="2" toLane="2" dir="s" state="M"/>
    <connection from=":gneJ9_2" to="gneE9" fromLane="3" toLane="3" dir="s" state="M"/>

</net>
