<?xml version="1.0" encoding="UTF-8"?>

<!-- generated on Tue Mar 24 09:18:07 2020 by Eclipse SUMO netedit Version v1_1_0+0000-2147d155b1
<configuration xmlns:xsi="http://www.w3.org/2001/XMLSchema-instance" xsi:noNamespaceSchemaLocation="http://sumo.dlr.de/xsd/netconvertConfiguration.xsd">

    <input>
        <sumo-net-file value="/home/llavezzo/github/flow_osuphysics/lucalavezzo/constructionV4.net.xml"/>
    </input>

    <output>
        <output-file value="/home/llavezzo/github/flow_osuphysics/lucalavezzo/constructionV4.net.xml"/>
    </output>

    <processing>
        <geometry.max-grade.fix value="false"/>
        <offset.disable-normalization value="true"/>
        <lefthand value="false"/>
    </processing>

    <junctions>
        <no-turnarounds value="true"/>
        <junctions.corner-detail value="5"/>
        <junctions.limit-turn-speed value="5.5"/>
        <rectangular-lane-cut value="false"/>
    </junctions>

    <pedestrian>
        <walkingareas value="false"/>
    </pedestrian>

</configuration>
-->

<net version="1.1" junctionCornerDetail="5" limitTurnSpeed="5.50" xmlns:xsi="http://www.w3.org/2001/XMLSchema-instance" xsi:noNamespaceSchemaLocation="http://sumo.dlr.de/xsd/net_file.xsd">

    <location netOffset="0.00,0.00" convBoundary="-1277.48,-193.25,844.61,48.95" origBoundary="-10000000000.00,-10000000000.00,10000000000.00,10000000000.00" projParameter="!"/>

    <edge id=":gneJ10_0" function="internal">
        <lane id=":gneJ10_0_0" index="0" speed="3.91" length="2.54" shape="829.00,34.29 829.69,34.19 830.18,33.89 830.48,33.40 830.59,32.71"/>
    </edge>
    <edge id=":gneJ10_1" function="internal">
        <lane id=":gneJ10_1_0" index="0" speed="6.08" length="7.62" shape="829.03,37.49 831.09,37.18 832.57,36.29 833.47,34.81 833.79,32.75"/>
    </edge>
    <edge id=":gneJ10_2" function="internal">
        <lane id=":gneJ10_2_0" index="0" speed="7.66" length="12.70" shape="829.06,40.69 832.49,40.17 834.96,38.68 836.46,36.22 836.99,32.80"/>
    </edge>
    <edge id=":gneJ10_3" function="internal">
        <lane id=":gneJ10_3_0" index="0" speed="8.96" length="17.78" shape="829.09,43.89 833.89,43.17 837.35,41.08 839.44,37.64 840.19,32.84"/>
    </edge>
    <edge id=":gneJ14_0" function="internal">
        <lane id=":gneJ14_0_0" index="0" speed="13.89" length="0.29" shape="-720.38,-107.36 -720.38,-107.01"/>
        <lane id=":gneJ14_0_1" index="1" speed="13.89" length="0.29" shape="-723.58,-107.30 -723.58,-106.98"/>
        <lane id=":gneJ14_0_2" index="2" speed="13.89" length="0.29" shape="-726.78,-107.23 -726.78,-106.96"/>
        <lane id=":gneJ14_0_3" index="3" speed="13.89" length="0.29" shape="-729.98,-107.16 -729.98,-106.93"/>
    </edge>
    <edge id=":gneJ16_0" function="internal">
        <lane id=":gneJ16_0_0" index="0" speed="8.16" length="14.65" shape="-719.15,30.10 -718.76,35.39 -717.69,39.17 -715.94,41.44 -713.51,42.20"/>
    </edge>
    <edge id=":gneJ16_1" function="internal">
        <lane id=":gneJ16_1_0" index="0" speed="9.37" length="19.66" shape="-722.35,30.13 -721.75,36.80 -720.07,41.57 -717.33,44.44 -713.52,45.40"/>
    </edge>
    <edge id=":gneJ16_2" function="internal">
        <lane id=":gneJ16_2_0" index="0" speed="10.45" length="24.71" shape="-725.55,30.15 -724.74,38.21 -722.46,43.97 -718.73,47.44 -713.53,48.60"/>
    </edge>
    <edge id=":gneJ16_3" function="internal">
        <lane id=":gneJ16_3_0" index="0" speed="11.43" length="29.79" shape="-728.75,30.18 -727.73,39.62 -724.85,46.37 -720.12,50.43 -713.54,51.80"/>
    </edge>
    <edge id=":gneJ16_4" function="internal">
        <lane id=":gneJ16_4_0" index="0" speed="13.89" length="22.06" shape="-734.28,35.73 -727.97,36.76 -723.89,38.97 -719.81,41.18 -713.51,42.20"/>
        <lane id=":gneJ16_4_1" index="1" speed="13.89" length="22.06" shape="-734.29,38.93 -727.99,39.96 -723.91,42.17 -719.82,44.38 -713.52,45.40"/>
        <lane id=":gneJ16_4_2" index="2" speed="13.89" length="22.06" shape="-734.31,42.13 -728.00,43.16 -723.92,45.37 -719.84,47.58 -713.53,48.60"/>
        <lane id=":gneJ16_4_3" index="3" speed="13.89" length="22.06" shape="-734.33,45.33 -728.02,46.36 -723.93,48.57 -719.85,50.78 -713.54,51.80"/>
    </edge>
    <edge id=":gneJ18_0" function="internal">
        <lane id=":gneJ18_0_0" index="0" speed="3.90" length="2.63" shape="-720.32,-182.01 -721.04,-181.91 -721.54,-181.61 -721.84,-181.09 -721.93,-180.38"/>
    </edge>
    <edge id=":gneJ18_1" function="internal">
        <lane id=":gneJ18_1_0" index="0" speed="6.07" length="7.88" shape="-720.31,-185.21 -722.46,-184.91 -723.97,-183.99 -724.86,-182.46 -725.13,-180.31"/>
    </edge>
    <edge id=":gneJ18_2" function="internal">
        <lane id=":gneJ18_2_0" index="0" speed="7.65" length="13.13" shape="-720.30,-188.41 -723.88,-187.91 -726.41,-186.38 -727.89,-183.83 -728.32,-180.24"/>
    </edge>
    <edge id=":gneJ18_3" function="internal">
        <lane id=":gneJ18_3_0" index="0" speed="8.96" length="18.38" shape="-720.29,-191.61 -725.30,-190.91 -728.84,-188.77 -730.91,-185.19 -731.52,-180.18"/>
    </edge>
    <edge id=":gneJ29_0" function="internal">
        <lane id=":gneJ29_0_0" index="0" speed="3.90" length="2.60" shape="833.25,-175.85 833.15,-176.55 832.86,-177.06 832.36,-177.37 831.65,-177.47"/>
    </edge>
    <edge id=":gneJ29_1" function="internal">
        <lane id=":gneJ29_1_0" index="0" speed="5.21" length="5.46" shape="833.25,-175.85 833.17,-177.95 832.88,-179.46 832.38,-180.37 831.66,-180.67"/>
    </edge>
    <edge id=":gneJ29_2" function="internal">
        <lane id=":gneJ29_2_0" index="0" speed="6.31" length="8.50" shape="833.25,-175.85 833.19,-179.35 832.90,-181.86 832.40,-183.37 831.67,-183.87"/>
    </edge>
    <edge id=":gneJ29_3" function="internal">
        <lane id=":gneJ29_3_0" index="0" speed="7.76" length="13.40" shape="836.45,-175.81 836.20,-180.73 835.33,-184.25 833.82,-186.36 831.68,-187.07"/>
    </edge>
    <edge id=":gneJ30_0" function="internal">
        <lane id=":gneJ30_0_0" index="0" speed="6.55" length="8.86" shape="-540.18,37.24 -539.72,39.64 -538.63,41.35 -536.91,42.38 -534.55,42.71"/>
    </edge>
    <edge id=":gneJ30_1" function="internal">
        <lane id=":gneJ30_1_0" index="0" speed="7.38" length="11.49" shape="-540.18,37.24 -539.66,41.04 -538.55,43.75 -536.84,45.38 -534.54,45.91"/>
    </edge>
    <edge id=":gneJ30_2" function="internal">
        <lane id=":gneJ30_2_0" index="0" speed="13.89" length="10.90" shape="-545.42,42.73 -534.55,42.71"/>
        <lane id=":gneJ30_2_1" index="1" speed="13.89" length="10.90" shape="-545.43,45.93 -534.54,45.91"/>
        <lane id=":gneJ30_2_2" index="2" speed="13.89" length="10.90" shape="-545.44,49.13 -534.52,49.11"/>
        <lane id=":gneJ30_2_3" index="3" speed="13.89" length="10.90" shape="-545.45,52.33 -534.51,52.31"/>
    </edge>
    <edge id=":gneJ31_0" function="internal">
        <lane id=":gneJ31_0_0" index="0" speed="6.53" length="8.93" shape="574.73,36.56 577.12,36.21 578.85,35.16 579.91,33.42 580.30,31.00"/>
    </edge>
    <edge id=":gneJ31_1" function="internal">
        <lane id=":gneJ31_1_0" index="0" speed="13.89" length="11.00" shape="574.73,36.56 585.72,36.49"/>
    </edge>
    <edge id=":gneJ31_2" function="internal">
        <lane id=":gneJ31_2_0" index="0" speed="7.35" length="3.96" shape="574.74,39.76 577.10,39.21 578.21,38.14"/>
    </edge>
    <edge id=":gneJ31_3" function="internal">
        <lane id=":gneJ31_3_0" index="0" speed="13.89" length="11.01" shape="574.74,39.76 585.75,39.69"/>
    </edge>
    <edge id=":gneJ31_4" function="internal">
        <lane id=":gneJ31_4_0" index="0" speed="8.13" length="3.53" shape="574.76,42.96 577.09,42.21 577.74,41.34"/>
    </edge>
    <edge id=":gneJ31_5" function="internal">
        <lane id=":gneJ31_5_0" index="0" speed="13.89" length="11.02" shape="574.76,42.96 585.78,42.89"/>
    </edge>
    <edge id=":gneJ31_6" function="internal">
        <lane id=":gneJ31_6_0" index="0" speed="8.86" length="3.25" shape="574.78,46.16 577.07,45.21 577.46,44.55"/>
    </edge>
    <edge id=":gneJ31_7" function="internal">
        <lane id=":gneJ31_7_0" index="0" speed="13.89" length="11.04" shape="574.78,46.16 585.81,46.09"/>
    </edge>
    <edge id=":gneJ31_8" function="internal">
        <lane id=":gneJ31_8_0" index="0" speed="7.35" length="7.62" shape="578.21,38.14 578.82,37.56 579.88,34.82 580.30,31.00"/>
    </edge>
    <edge id=":gneJ31_9" function="internal">
        <lane id=":gneJ31_9_0" index="0" speed="8.13" length="10.87" shape="577.74,41.34 578.79,39.96 579.86,36.22 580.30,31.00"/>
    </edge>
    <edge id=":gneJ31_10" function="internal">
        <lane id=":gneJ31_10_0" index="0" speed="8.86" length="14.04" shape="577.46,44.55 578.76,42.36 579.83,37.62 580.30,31.00"/>
    </edge>
    <edge id=":gneJ32_0" function="internal">
        <lane id=":gneJ32_0_0" index="0" speed="3.90" length="2.63" shape="581.91,-43.81 581.82,-44.53 581.53,-45.04 581.02,-45.34 580.30,-45.44"/>
    </edge>
    <edge id=":gneJ35_0" function="internal">
        <lane id=":gneJ35_0_0" index="0" speed="3.90" length="2.66" shape="-542.26,-38.91 -542.98,-38.80 -543.49,-38.48 -543.78,-37.96 -543.85,-37.23"/>
    </edge>
    <edge id=":gneJ6_0" function="internal">
        <lane id=":gneJ6_0_0" index="0" speed="13.89" length="8.37" shape="113.69,39.72 116.17,40.14 117.74,41.21 119.31,42.29 121.80,42.78"/>
        <lane id=":gneJ6_0_1" index="1" speed="13.89" length="8.37" shape="113.79,42.91 121.80,42.78"/>
        <lane id=":gneJ6_0_2" index="2" speed="13.89" length="8.37" shape="113.90,46.11 121.82,45.98"/>
        <lane id=":gneJ6_0_3" index="3" speed="13.89" length="8.37" shape="114.00,49.31 116.42,48.73 117.91,47.60 119.41,46.49 121.82,45.98"/>
    </edge>
    <edge id=":gneJ9_0" function="internal">
        <lane id=":gneJ9_0_0" index="0" speed="13.89" length="8.41" shape="333.99,41.27 336.47,40.71 337.98,39.51 339.50,38.30 341.98,37.75"/>
        <lane id=":gneJ9_0_1" index="1" speed="13.89" length="8.41" shape="333.99,41.27 341.99,40.95"/>
        <lane id=":gneJ9_0_2" index="2" speed="13.89" length="8.41" shape="334.01,44.47 342.01,44.15"/>
        <lane id=":gneJ9_0_3" index="3" speed="13.89" length="8.41" shape="334.01,44.47 336.46,44.91 338.02,45.91 339.58,46.90 342.03,47.35"/>
    </edge>

    <edge id="gneE13" from="gneJ14" to="gneJ16" priority="-1">
        <lane id="gneE13_0" index="0" speed="13.89" length="137.12" shape="-720.38,-107.01 -719.15,30.10"/>
        <lane id="gneE13_1" index="1" speed="13.89" length="137.12" shape="-723.58,-106.98 -722.35,30.13"/>
        <lane id="gneE13_2" index="2" speed="13.89" length="137.12" shape="-726.78,-106.96 -725.55,30.15"/>
        <lane id="gneE13_3" index="3" speed="13.89" length="137.12" shape="-729.98,-106.93 -728.75,30.18"/>
    </edge>
    <edge id="gneE15" from="gneJ18" to="gneJ14" priority="-1">
        <lane id="gneE15_0" index="0" speed="13.89" length="73.03" shape="-721.93,-180.38 -720.38,-107.36"/>
        <lane id="gneE15_1" index="1" speed="13.89" length="73.03" shape="-725.13,-180.31 -723.58,-107.30"/>
        <lane id="gneE15_2" index="2" speed="13.89" length="73.03" shape="-728.32,-180.24 -726.78,-107.23"/>
        <lane id="gneE15_3" index="3" speed="13.89" length="73.03" shape="-731.52,-180.18 -729.98,-107.16"/>
    </edge>
    <edge id="gneE33" from="gneJ10" to="gneJ29" priority="-1">
        <lane id="gneE33_0" index="0" speed="13.89" length="208.58" shape="830.59,32.71 833.25,-175.85"/>
        <lane id="gneE33_1" index="1" speed="13.89" length="208.58" shape="833.79,32.75 836.45,-175.81"/>
        <lane id="gneE33_2" index="2" speed="13.89" length="208.58" shape="836.99,32.80 839.65,-175.77"/>
        <lane id="gneE33_3" index="3" speed="13.89" length="208.58" shape="840.19,32.84 842.85,-175.73"/>
    </edge>
    <edge id="gneE35" from="gneJ29" to="gneJ18" priority="-1" shape="844.61,-188.63 837.77,-188.65 834.47,-188.66 -106.65,-191.42 -733.40,-193.25">
        <lane id="gneE35_0" index="0" speed="13.89" length="1551.98" shape="831.65,-177.47 -106.68,-180.22 -720.32,-182.01"/>
        <lane id="gneE35_1" index="1" speed="13.89" length="1551.98" shape="831.66,-180.67 -106.67,-183.42 -720.31,-185.21"/>
        <lane id="gneE35_2" index="2" speed="13.89" length="1551.98" shape="831.67,-183.87 -106.66,-186.62 -720.30,-188.41"/>
        <lane id="gneE35_3" index="3" speed="13.89" length="1551.98" shape="831.68,-187.07 -106.65,-189.82 -720.29,-191.61"/>
    </edge>
    <edge id="gneE37" from="gneJ31" to="gneJ32" priority="-1">
        <lane id="gneE37_0" index="0" speed="13.89" length="74.82" shape="580.30,31.00 581.91,-43.81"/>
    </edge>
    <edge id="gneE38" from="gneJ32" to="gneJ35" priority="-1">
        <lane id="gneE38_0" index="0" speed="13.89" length="1122.58" shape="580.30,-45.44 -542.26,-38.91"/>
    </edge>
    <edge id="gneE39" from="gneJ35" to="gneJ30" priority="-1">
        <lane id="gneE39_0" index="0" speed="13.89" length="74.56" shape="-543.85,-37.23 -540.18,37.24"/>
    </edge>
    <edge id="gneE4.264" from="gneJ16" to="gneJ30" priority="-1" spreadType="center">
        <lane id="gneE4.264_0" index="0" speed="13.89" length="168.10" shape="-713.51,42.20 -545.42,42.73"/>
        <lane id="gneE4.264_1" index="1" speed="13.89" length="168.10" shape="-713.52,45.40 -545.43,45.93"/>
        <lane id="gneE4.264_2" index="2" speed="13.89" length="168.10" shape="-713.53,48.60 -545.44,49.13"/>
        <lane id="gneE4.264_3" index="3" speed="13.89" length="168.10" shape="-713.54,51.80 -545.45,52.33"/>
    </edge>
    <edge id="gneE4.264.110" from="gneJ30" to="gneJ6" priority="-1" spreadType="center" shape="-541.27,47.54 -23.69,45.25 90.36,45.29 115.13,44.47">
        <lane id="gneE4.264.110_0" index="0" speed="13.89" length="648.39" shape="-534.55,42.71 -23.70,40.45 90.28,40.49 113.69,39.72"/>
        <lane id="gneE4.264.110_1" index="1" speed="13.89" length="648.39" shape="-534.54,45.91 -23.69,43.65 90.33,43.69 113.79,42.91"/>
        <lane id="gneE4.264.110_2" index="2" speed="13.89" length="648.39" shape="-534.52,49.11 -23.69,46.85 90.39,46.89 113.90,46.11"/>
        <lane id="gneE4.264.110_3" index="3" speed="13.89" length="648.39" shape="-534.51,52.31 -23.68,50.05 90.44,50.09 114.00,49.31"/>
    </edge>
    <edge id="gneE43" from="gneJ38" to="gneJ16" priority="-1">
        <lane id="gneE43_0" index="0" speed="13.89" length="501.97" shape="-1236.24,33.08 -734.28,35.73"/>
        <lane id="gneE43_1" index="1" speed="13.89" length="501.97" shape="-1236.26,36.28 -734.29,38.93"/>
        <lane id="gneE43_2" index="2" speed="13.89" length="501.97" shape="-1236.27,39.48 -734.31,42.13"/>
        <lane id="gneE43_3" index="3" speed="13.89" length="501.97" shape="-1236.29,42.68 -734.33,45.33"/>
    </edge>
    <edge id="gneE8" from="gneJ6" to="gneJ9" priority="-1">
        <lane id="gneE8_0" index="0" speed="13.89" length="212.20" shape="121.80,42.78 333.99,41.27"/>
        <lane id="gneE8_1" index="1" speed="13.89" length="212.20" shape="121.82,45.98 334.01,44.47"/>
    </edge>
    <edge id="gneE9" from="gneJ9" to="gneJ31" priority="-1" shape="341.35,48.95 581.54,47.73">
        <lane id="gneE9_0" index="0" speed="13.89" length="232.75" shape="341.98,37.75 574.73,36.56"/>
        <lane id="gneE9_1" index="1" speed="13.89" length="232.75" shape="341.99,40.95 574.74,39.76"/>
        <lane id="gneE9_2" index="2" speed="13.89" length="232.75" shape="342.01,44.15 574.76,42.96"/>
        <lane id="gneE9_3" index="3" speed="13.89" length="232.75" shape="342.03,47.35 574.78,46.16"/>
    </edge>
    <edge id="gneE9.252" from="gneJ31" to="gneJ10" priority="-1">
        <lane id="gneE9.252_0" index="0" speed="13.89" length="243.29" shape="585.72,36.49 829.00,34.29"/>
        <lane id="gneE9.252_1" index="1" speed="13.89" length="243.29" shape="585.75,39.69 829.03,37.49"/>
        <lane id="gneE9.252_2" index="2" speed="13.89" length="243.29" shape="585.78,42.89 829.06,40.69"/>
        <lane id="gneE9.252_3" index="3" speed="13.89" length="243.29" shape="585.81,46.09 829.09,43.89"/>
    </edge>

    <junction id="gneJ10" type="priority" x="841.63" y="45.38" incLanes="gneE9.252_0 gneE9.252_1 gneE9.252_2 gneE9.252_3" intLanes=":gneJ10_0_0 :gneJ10_1_0 :gneJ10_2_0 :gneJ10_3_0" shape="841.79,32.86 828.99,32.69 829.11,45.49 832.94,45.11 836.08,44.04 838.54,42.28 840.31,39.83 841.39,36.69">
        <request index="0" response="0000" foes="0000" cont="0"/>
        <request index="1" response="0000" foes="0000" cont="0"/>
        <request index="2" response="0000" foes="0000" cont="0"/>
        <request index="3" response="0000" foes="0000" cont="0"/>
    </junction>
    <junction id="gneJ14" type="priority" x="-731.58" y="-107.02" incLanes="gneE15_0 gneE15_1 gneE15_2 gneE15_3" intLanes=":gneJ14_0_0 :gneJ14_0_1 :gneJ14_0_2 :gneJ14_0_3" shape="-731.58,-106.91 -718.78,-107.03 -718.79,-107.40 -731.58,-107.13">
        <request index="0" response="0000" foes="0000" cont="0"/>
        <request index="1" response="0000" foes="0000" cont="0"/>
        <request index="2" response="0000" foes="0000" cont="0"/>
        <request index="3" response="0000" foes="0000" cont="0"/>
    </junction>
    <junction id="gneJ16" type="priority" x="-730.20" y="46.95" incLanes="gneE13_0 gneE13_1 gneE13_2 gneE13_3 gneE43_0 gneE43_1 gneE43_2 gneE43_3" intLanes=":gneJ16_0_0 :gneJ16_1_0 :gneJ16_2_0 :gneJ16_3_0 :gneJ16_4_0 :gneJ16_4_1 :gneJ16_4_2 :gneJ16_4_3" shape="-713.54,53.40 -713.50,40.60 -715.71,39.43 -716.49,37.97 -717.06,35.92 -717.41,33.29 -717.55,30.08 -730.35,30.20 -730.77,32.39 -731.31,33.16 -732.08,33.70 -733.06,34.02 -734.27,34.13 -734.33,46.93 -729.77,47.43 -726.52,48.62 -721.35,51.72 -718.11,52.91">
        <request index="0" response="00000000" foes="11110000" cont="0"/>
        <request index="1" response="00000000" foes="11110000" cont="0"/>
        <request index="2" response="00000000" foes="11110000" cont="0"/>
        <request index="3" response="00000000" foes="11110000" cont="0"/>
        <request index="4" response="00001111" foes="00001111" cont="0"/>
        <request index="5" response="00001111" foes="00001111" cont="0"/>
        <request index="6" response="00001111" foes="00001111" cont="0"/>
        <request index="7" response="00001111" foes="00001111" cont="0"/>
    </junction>
    <junction id="gneJ18" type="priority" x="-733.40" y="-193.25" incLanes="gneE35_0 gneE35_1 gneE35_2 gneE35_3" intLanes=":gneJ18_0_0 :gneJ18_1_0 :gneJ18_2_0 :gneJ18_3_0" shape="-733.12,-180.14 -720.33,-180.41 -720.29,-193.21 -724.29,-192.86 -727.54,-191.78 -730.05,-189.96 -731.82,-187.42 -732.84,-184.15">
        <request index="0" response="0000" foes="0000" cont="0"/>
        <request index="1" response="0000" foes="0000" cont="0"/>
        <request index="2" response="0000" foes="0000" cont="0"/>
        <request index="3" response="0000" foes="0000" cont="0"/>
    </junction>
    <junction id="gneJ29" type="priority" x="844.61" y="-188.63" incLanes="gneE33_0 gneE33_1 gneE33_2 gneE33_3" intLanes=":gneJ29_0_0 :gneJ29_1_0 :gneJ29_2_0 :gneJ29_3_0" shape="831.68,-188.67 831.65,-175.87 844.45,-175.71 844.14,-179.66 843.10,-182.89 841.34,-185.41 838.85,-187.21 835.63,-188.30">
        <request index="0" response="0000" foes="0000" cont="0"/>
        <request index="1" response="0000" foes="0000" cont="0"/>
        <request index="2" response="0000" foes="0000" cont="0"/>
        <request index="3" response="0000" foes="0000" cont="0"/>
    </junction>
    <junction id="gneJ30" type="priority" x="-541.27" y="47.54" incLanes="gneE39_0 gneE4.264_0 gneE4.264_1 gneE4.264_2 gneE4.264_3" intLanes=":gneJ30_0_0 :gneJ30_1_0 :gneJ30_2_0 :gneJ30_2_1 :gneJ30_2_2 :gneJ30_2_3" shape="-534.50,53.91 -534.56,41.11 -536.70,40.68 -537.48,40.13 -538.04,39.36 -538.41,38.37 -538.58,37.16 -541.77,37.32 -542.09,39.44 -542.59,40.18 -543.31,40.71 -544.25,41.02 -545.41,41.13 -545.45,53.93">
        <request index="0" response="111100" foes="111100" cont="0"/>
        <request index="1" response="111100" foes="111100" cont="0"/>
        <request index="2" response="000000" foes="000011" cont="0"/>
        <request index="3" response="000000" foes="000011" cont="0"/>
        <request index="4" response="000000" foes="000011" cont="0"/>
        <request index="5" response="000000" foes="000011" cont="0"/>
    </junction>
    <junction id="gneJ31" type="priority" x="581.54" y="47.73" incLanes="gneE9_0 gneE9_1 gneE9_2 gneE9_3" intLanes=":gneJ31_0_0 :gneJ31_1_0 :gneJ31_8_0 :gneJ31_3_0 :gneJ31_9_0 :gneJ31_5_0 :gneJ31_10_0 :gneJ31_7_0" shape="585.83,47.69 585.71,34.89 583.56,34.48 582.81,33.94 582.29,33.19 581.98,32.22 581.90,31.03 578.70,30.96 578.22,33.18 577.66,33.95 576.89,34.51 575.91,34.85 574.72,34.96 574.78,47.76">
        <request index="0" response="00000000" foes="01010100" cont="0"/>
        <request index="1" response="00000000" foes="01010100" cont="0"/>
        <request index="2" response="00000011" foes="01010011" cont="1"/>
        <request index="3" response="00000000" foes="01010000" cont="0"/>
        <request index="4" response="00001111" foes="01001111" cont="1"/>
        <request index="5" response="00000000" foes="01000000" cont="0"/>
        <request index="6" response="00111111" foes="00111111" cont="1"/>
        <request index="7" response="00000000" foes="00000000" cont="0"/>
    </junction>
    <junction id="gneJ32" type="priority" x="583.58" y="-47.06" incLanes="gneE37_0" intLanes=":gneJ32_0_0" shape="580.29,-47.04 580.31,-43.84 583.51,-43.77 583.18,-45.60 582.74,-46.23 582.11,-46.69 581.29,-46.96">
        <request index="0" response="0" foes="0" cont="0"/>
    </junction>
    <junction id="gneJ35" type="priority" x="-545.61" y="-40.49" incLanes="gneE38_0" intLanes=":gneJ35_0_0" shape="-545.45,-37.15 -542.25,-37.31 -542.27,-40.51 -544.11,-40.13 -544.73,-39.66 -545.17,-39.01 -545.40,-38.17">
        <request index="0" response="0" foes="0" cont="0"/>
    </junction>
    <junction id="gneJ38" type="dead_end" x="-1236.30" y="44.28" incLanes="" intLanes="" shape="-1236.30,44.28 -1236.23,31.48"/>
    <junction id="gneJ5" type="dead_end" x="-1277.48" y="44.04" incLanes="" intLanes="" shape="-1277.48,44.04"/>
    <junction id="gneJ6" type="priority" x="120.55" y="47.59" incLanes="gneE4.264.110_0 gneE4.264.110_1 gneE4.264.110_2 gneE4.264.110_3" intLanes=":gneJ6_0_0 :gneJ6_0_1 :gneJ6_0_2 :gneJ6_0_3" shape="121.83,47.58 121.79,41.18 118.71,40.37 117.71,39.61 116.72,38.85 115.45,38.30 113.63,38.12 114.06,50.91 117.01,49.99 117.95,49.20 118.88,48.43 120.08,47.83">
        <request index="0" response="0010" foes="0010" cont="0"/>
        <request index="1" response="0000" foes="0001" cont="0"/>
        <request index="2" response="1000" foes="1000" cont="0"/>
        <request index="3" response="0000" foes="0100" cont="0"/>
    </junction>
    <junction id="gneJ9" type="priority" x="334.71" y="46.07" incLanes="gneE8_0 gneE8_1" intLanes=":gneJ9_0_0 :gneJ9_0_1 :gneJ9_0_2 :gneJ9_0_3" shape="342.03,48.95 341.97,36.15 338.93,37.06 337.02,38.75 335.79,39.40 333.98,39.68 334.03,46.07 337.05,46.81 339.01,48.20 340.26,48.74">
        <request index="0" response="0000" foes="0000" cont="0"/>
        <request index="1" response="0000" foes="0000" cont="0"/>
        <request index="2" response="0000" foes="0000" cont="0"/>
        <request index="3" response="0000" foes="0000" cont="0"/>
    </junction>

    <junction id=":gneJ31_8_0" type="internal" x="578.21" y="38.14" incLanes=":gneJ31_2_0 gneE9_0" intLanes=":gneJ31_1_0"/>
    <junction id=":gneJ31_9_0" type="internal" x="577.74" y="41.34" incLanes=":gneJ31_4_0 gneE9_0 gneE9_1" intLanes=":gneJ31_1_0 :gneJ31_3_0"/>
    <junction id=":gneJ31_10_0" type="internal" x="577.46" y="44.55" incLanes=":gneJ31_6_0 gneE9_0 gneE9_1 gneE9_2" intLanes=":gneJ31_1_0 :gneJ31_3_0 :gneJ31_5_0"/>

    <connection from="gneE13" to="gneE4.264" fromLane="0" toLane="0" via=":gneJ16_0_0" dir="r" state="M"/>
    <connection from="gneE13" to="gneE4.264" fromLane="1" toLane="1" via=":gneJ16_1_0" dir="r" state="M"/>
    <connection from="gneE13" to="gneE4.264" fromLane="2" toLane="2" via=":gneJ16_2_0" dir="r" state="M"/>
    <connection from="gneE13" to="gneE4.264" fromLane="3" toLane="3" via=":gneJ16_3_0" dir="r" state="M"/>
    <connection from="gneE15" to="gneE13" fromLane="0" toLane="0" via=":gneJ14_0_0" dir="s" state="M"/>
    <connection from="gneE15" to="gneE13" fromLane="1" toLane="1" via=":gneJ14_0_1" dir="s" state="M"/>
    <connection from="gneE15" to="gneE13" fromLane="2" toLane="2" via=":gneJ14_0_2" dir="s" state="M"/>
    <connection from="gneE15" to="gneE13" fromLane="3" toLane="3" via=":gneJ14_0_3" dir="s" state="M"/>
    <connection from="gneE33" to="gneE35" fromLane="0" toLane="0" via=":gneJ29_0_0" dir="r" state="M"/>
    <connection from="gneE33" to="gneE35" fromLane="0" toLane="1" via=":gneJ29_1_0" dir="r" state="M"/>
    <connection from="gneE33" to="gneE35" fromLane="0" toLane="2" via=":gneJ29_2_0" dir="r" state="M"/>
    <connection from="gneE33" to="gneE35" fromLane="1" toLane="3" via=":gneJ29_3_0" dir="r" state="M"/>
    <connection from="gneE35" to="gneE15" fromLane="0" toLane="0" via=":gneJ18_0_0" dir="r" state="M"/>
    <connection from="gneE35" to="gneE15" fromLane="1" toLane="1" via=":gneJ18_1_0" dir="r" state="M"/>
    <connection from="gneE35" to="gneE15" fromLane="2" toLane="2" via=":gneJ18_2_0" dir="r" state="M"/>
    <connection from="gneE35" to="gneE15" fromLane="3" toLane="3" via=":gneJ18_3_0" dir="r" state="M"/>
    <connection from="gneE37" to="gneE38" fromLane="0" toLane="0" via=":gneJ32_0_0" dir="r" state="M"/>
    <connection from="gneE38" to="gneE39" fromLane="0" toLane="0" via=":gneJ35_0_0" dir="r" state="M"/>
    <connection from="gneE39" to="gneE4.264.110" fromLane="0" toLane="0" via=":gneJ30_0_0" dir="r" state="m"/>
    <connection from="gneE39" to="gneE4.264.110" fromLane="0" toLane="1" via=":gneJ30_1_0" dir="r" state="m"/>
    <connection from="gneE4.264" to="gneE4.264.110" fromLane="0" toLane="0" via=":gneJ30_2_0" dir="s" state="M"/>
    <connection from="gneE4.264" to="gneE4.264.110" fromLane="1" toLane="1" via=":gneJ30_2_1" dir="s" state="M"/>
    <connection from="gneE4.264" to="gneE4.264.110" fromLane="2" toLane="2" via=":gneJ30_2_2" dir="s" state="M"/>
    <connection from="gneE4.264" to="gneE4.264.110" fromLane="3" toLane="3" via=":gneJ30_2_3" dir="s" state="M"/>
    <connection from="gneE4.264.110" to="gneE8" fromLane="0" toLane="0" via=":gneJ6_0_0" dir="s" state="m"/>
    <connection from="gneE4.264.110" to="gneE8" fromLane="1" toLane="0" via=":gneJ6_0_1" dir="s" state="M"/>
    <connection from="gneE4.264.110" to="gneE8" fromLane="2" toLane="1" via=":gneJ6_0_2" dir="s" state="m"/>
    <connection from="gneE4.264.110" to="gneE8" fromLane="3" toLane="1" via=":gneJ6_0_3" dir="s" state="M"/>
    <connection from="gneE43" to="gneE4.264" fromLane="0" toLane="0" via=":gneJ16_4_0" dir="s" state="m"/>
    <connection from="gneE43" to="gneE4.264" fromLane="1" toLane="1" via=":gneJ16_4_1" dir="s" state="m"/>
    <connection from="gneE43" to="gneE4.264" fromLane="2" toLane="2" via=":gneJ16_4_2" dir="s" state="m"/>
    <connection from="gneE43" to="gneE4.264" fromLane="3" toLane="3" via=":gneJ16_4_3" dir="s" state="m"/>
    <connection from="gneE8" to="gneE9" fromLane="0" toLane="0" via=":gneJ9_0_0" dir="s" state="M"/>
    <connection from="gneE8" to="gneE9" fromLane="0" toLane="1" via=":gneJ9_0_1" dir="s" state="M"/>
    <connection from="gneE8" to="gneE9" fromLane="1" toLane="2" via=":gneJ9_0_2" dir="s" state="M"/>
    <connection from="gneE8" to="gneE9" fromLane="1" toLane="3" via=":gneJ9_0_3" dir="s" state="M"/>
    <connection from="gneE9" to="gneE37" fromLane="0" toLane="0" via=":gneJ31_0_0" dir="r" state="M"/>
    <connection from="gneE9" to="gneE9.252" fromLane="0" toLane="0" via=":gneJ31_1_0" dir="s" state="M"/>
    <connection from="gneE9" to="gneE37" fromLane="1" toLane="0" via=":gneJ31_2_0" dir="r" state="m"/>
    <connection from="gneE9" to="gneE9.252" fromLane="1" toLane="1" via=":gneJ31_3_0" dir="s" state="M"/>
    <connection from="gneE9" to="gneE37" fromLane="2" toLane="0" via=":gneJ31_4_0" dir="r" state="m"/>
    <connection from="gneE9" to="gneE9.252" fromLane="2" toLane="2" via=":gneJ31_5_0" dir="s" state="M"/>
    <connection from="gneE9" to="gneE37" fromLane="3" toLane="0" via=":gneJ31_6_0" dir="r" state="m"/>
    <connection from="gneE9" to="gneE9.252" fromLane="3" toLane="3" via=":gneJ31_7_0" dir="s" state="M"/>
    <connection from="gneE9.252" to="gneE33" fromLane="0" toLane="0" via=":gneJ10_0_0" dir="r" state="M"/>
    <connection from="gneE9.252" to="gneE33" fromLane="1" toLane="1" via=":gneJ10_1_0" dir="r" state="M"/>
    <connection from="gneE9.252" to="gneE33" fromLane="2" toLane="2" via=":gneJ10_2_0" dir="r" state="M"/>
    <connection from="gneE9.252" to="gneE33" fromLane="3" toLane="3" via=":gneJ10_3_0" dir="r" state="M"/>

    <connection from=":gneJ10_0" to="gneE33" fromLane="0" toLane="0" dir="r" state="M"/>
    <connection from=":gneJ10_1" to="gneE33" fromLane="0" toLane="1" dir="r" state="M"/>
    <connection from=":gneJ10_2" to="gneE33" fromLane="0" toLane="2" dir="r" state="M"/>
    <connection from=":gneJ10_3" to="gneE33" fromLane="0" toLane="3" dir="r" state="M"/>
    <connection from=":gneJ14_0" to="gneE13" fromLane="0" toLane="0" dir="s" state="M"/>
    <connection from=":gneJ14_0" to="gneE13" fromLane="1" toLane="1" dir="s" state="M"/>
    <connection from=":gneJ14_0" to="gneE13" fromLane="2" toLane="2" dir="s" state="M"/>
    <connection from=":gneJ14_0" to="gneE13" fromLane="3" toLane="3" dir="s" state="M"/>
    <connection from=":gneJ16_0" to="gneE4.264" fromLane="0" toLane="0" dir="r" state="M"/>
    <connection from=":gneJ16_1" to="gneE4.264" fromLane="0" toLane="1" dir="r" state="M"/>
    <connection from=":gneJ16_2" to="gneE4.264" fromLane="0" toLane="2" dir="r" state="M"/>
    <connection from=":gneJ16_3" to="gneE4.264" fromLane="0" toLane="3" dir="r" state="M"/>